# total energy = -44.53812787 eV
 
CRYSTAL
PRIMVEC
0.022981 2.064067 2.226603 
2.038133 -2.042523 -0.000021 
6.368581 4.337511 -6.826380 
PRIMCOORD
8 1
Li	      2.20036      2.20503     -0.26706         0.083360      0.082829     -0.107043
Li	      4.23278      2.19441     -2.16351        -0.094566     -0.095013      0.102951
Mn	      2.05263      0.01142      2.20419         0.074598      0.080984     -0.026854
Ni	      6.23361      2.16324     -4.45650         0.038134      0.050205     -0.043454
O	      6.42473      4.39585     -4.50340         0.019284      0.007676     -0.011141
O	      4.32452      4.33810     -2.49474        -0.075356     -0.087411      0.037619
O	      1.92075     -0.12333      0.05883        -0.040875     -0.040681      0.041736
O	      4.17233      0.09217     -2.28573        -0.004579      0.001411      0.006186
