# total energy = -45.57474333 eV
 
CRYSTAL
PRIMVEC
0.000010 2.080410 2.080534 
3.914212 -2.077124 2.077283 
3.914161 2.077149 -2.077280 
PRIMCOORD
8 1
Li	      5.87318      0.00590      2.07754         0.001699      0.001704     -0.000751
Li	      1.95886      0.00611      2.07781        -0.003645     -0.000196      0.000443
Mn	      3.91618     -2.07204      2.07574        -0.007154     -0.017993      0.015219
Ni	      3.91581      0.00467     -0.00010         0.001320      0.001655     -0.009254
O	      5.92730      0.00404     -0.00164         0.146048      0.003718      0.001650
O	      1.90422      0.00390     -0.00180        -0.139770      0.004396      0.002223
O	      3.91582      2.14411     -0.06067         0.001214      0.149585     -0.146628
O	      3.91588     -0.05483      2.13974         0.000287     -0.142869      0.137099
