# total energy = -92.19487669 eV
 
CRYSTAL
PRIMVEC
4.056054 -0.000052 0.000177 
-2.028888 4.268938 -6.257417 
-2.028092 4.220519 2.053257 
PRIMCOORD
16 1
Li	      0.00124      4.39157     -0.17720        -0.001144     -0.013358      0.016136
Li	      0.00147      2.30325     -2.13530         0.001348      0.037518      0.023048
Li	     -2.02723      4.31027     -1.99696         0.005101     -0.010863      0.044249
Li	     -2.02776      6.23638     -4.09149         0.001343     -0.000165     -0.020572
Mn	      0.00066      8.38670     -4.25341        -0.001558     -0.101058     -0.080077
Mn	      2.02954      2.10969     -0.09502         0.000545      0.123300     -0.032295
Ni	      0.00087      6.34764     -2.02124        -0.000360      0.020898      0.004454
Ni	      0.00050      4.25329     -4.08693         0.003032      0.028944     -0.087700
O	     -2.02736      6.43740     -2.09076         0.003054     -0.051570     -0.005642
O	      2.02935      4.00059      0.08966         0.000868     -0.029312     -0.002184
O	      0.00094      6.43297     -4.32004        -0.004813     -0.037961     -0.066683
O	      2.02939      0.10614      0.01483         0.002709      0.124812     -0.061300
O	      2.02887      4.11987     -4.35206        -0.002624      0.132578      0.011053
O	      2.02964      2.16134     -1.97109        -0.003146      0.007188      0.143337
O	      0.00114      4.44316     -2.12709        -0.003771     -0.199454      0.113045
O	      0.00156      1.86729     -0.04109        -0.000583     -0.031495      0.001132
