# total energy = -224.80151691 eV
 
CRYSTAL
PRIMVEC
5.884841 0.001738 -0.021265 
1.373192 7.735310 0.079000 
1.582029 2.629100 7.262695 
PRIMCOORD
36 1
Li	      5.85332      0.09870      0.04375        -0.001073      0.004940      0.006103
Li	      2.94974      0.02600      0.00947        -0.001184     -0.009428      0.002422
Li	      7.35192      9.49491      5.01591        -0.000334     -0.000294      0.000256
Li	      2.92480      5.08301      0.09102        -0.002870     -0.002229     -0.001378
Li	      5.93414      6.83226      4.95206         0.000364     -0.009599      0.000848
Li	      4.31206      6.03930      2.32425        -0.000979      0.008206     -0.006436
Li	      4.34092      2.68704     -0.09060         0.000325     -0.000023      0.001292
Li	      3.02568      5.20107      7.23417         0.006401     -0.005758     -0.000483
Li	      5.88430      3.50255      2.35245        -0.001215      0.005324      0.001897
Sc	      4.45172      9.38995      5.09230        -0.012165      0.008665      0.001583
Mn	      1.40027      6.03820      2.41580        -0.002299     -0.009558     -0.011723
V	      4.43721      0.93878      2.30334        -0.016394     -0.003095     -0.009403
Cr	      4.52144      4.33162      4.84786         0.011587     -0.007839      0.000818
Cr	      2.97105      6.85577      4.89673        -0.001848     -0.001279     -0.006389
Fe	      1.48631      4.26803      4.91698         0.007405      0.004299      0.010207
Co	      7.32451      7.71392      7.25953        -0.013298     -0.010386     -0.003396
Cu	      1.48273      0.91847      2.40140         0.014706      0.001090     -0.007638
Ni	      2.97547      3.51720      2.36860        -0.005695      0.001852      0.000972
O	      5.96632      8.58416      6.20218         0.011487     -0.006212      0.006696
O	      2.86230      8.45623      6.09435         0.002702     -0.004801     -0.008375
O	      7.34427      7.66029      3.60096         0.001984      0.005444     -0.003449
O	      4.35942      7.82688      3.69381         0.004589      0.006331      0.009204
O	      2.73187      6.93627      1.37326         0.006935      0.007416      0.008431
O	      5.73418      7.14644      1.41465         0.000418      0.000758      0.011874
O	      7.48343      5.99009      5.98553         0.002817      0.005694      0.001755
O	      4.40235      5.97472      5.91348         0.001178     -0.002329      0.000254
O	      3.01635      5.14168      3.71718        -0.002059      0.002008     -0.000138
O	      6.00604      5.12069      3.66937         0.007514      0.007718     -0.007758
O	      4.43984      4.35624      1.15267         0.001906      0.004532     -0.002563
O	      1.36220      4.49242      1.23793        -0.007773      0.013401      0.015530
O	      3.05307      3.48259      5.98198        -0.012274     -0.014811     -0.010244
O	      5.95022      3.53502      5.97777        -0.004765      0.004321     -0.009262
O	      4.44602      2.51007      3.60905        -0.005849     -0.006383     -0.001595
O	      1.61827      2.62473      3.68238         0.007712     -0.000066     -0.008523
O	      5.83912      1.69803      1.35518        -0.000735      0.008792      0.005790
O	      2.98065      1.75206      1.33990         0.002780     -0.006700      0.012822
