# total energy = -224.70570899 eV
 
CRYSTAL
PRIMVEC
5.895721 0.011004 -0.019754 
1.387255 7.743981 0.081944 
1.590505 2.636022 7.264800 
PRIMCOORD
36 1
Li	      2.97594     10.35468      7.32939        -0.002961     -0.002945      0.002345
Li	      4.52164      2.62171      7.21537        -0.005044      0.000400     -0.001868
Li	      7.35849      9.53230      5.04111        -0.003192     -0.003752     -0.008769
Li	      2.93520      5.21182      0.09491        -0.003178      0.007239      0.009897
Li	      5.93588      6.90016      4.98745         0.001041     -0.006793      0.002192
Li	      4.32137      6.02022      2.30802        -0.002637      0.004976     -0.000520
Li	      4.33591      2.68561     -0.09689         0.004317      0.000492     -0.000069
Li	      1.46172      2.56305      0.02538         0.014242     -0.015712     -0.004410
Li	      5.87811      3.53822      2.33102        -0.001839      0.000660     -0.002648
Sc	      3.01469      6.89965      4.96299         0.004166      0.002029     -0.005959
Mn	      1.41015      6.03562      2.42823         0.004236      0.001466     -0.008217
V	      4.45460      0.91731      2.28774        -0.014242     -0.000824     -0.007810
Cr	      4.54365      4.31216      4.84715         0.003414      0.021161      0.003595
Cr	      4.46280      9.46290      5.00636        -0.006091     -0.023760      0.008301
Fe	      1.49859      4.27242      4.94539         0.009285      0.001490     -0.000551
Co	      7.31878      7.76097      7.26373         0.009094     -0.006652      0.001751
Cu	      1.49006      0.91665      2.40163         0.007502     -0.005074     -0.007109
Ni	      2.98623      3.51432      2.37346        -0.000407      0.010472      0.005845
O	      5.96350      8.64371      6.16074         0.007926      0.001550      0.000507
O	      2.94737      8.59269      6.11523        -0.010703      0.005811      0.004084
O	      7.31542      7.70117      3.56772         0.004468      0.003447      0.001663
O	      4.45284      7.91417      3.72681        -0.001914      0.001435      0.006819
O	      2.75717      6.94012      1.40361        -0.001817      0.008466      0.004541
O	      5.73431      7.14248      1.40612        -0.000783      0.003369      0.003435
O	      7.47320      5.99273      6.04242         0.000538     -0.010944     -0.004194
O	      4.46255      5.93418      5.95788        -0.009372     -0.016196     -0.012093
O	      3.03621      5.10766      3.69464        -0.001140     -0.005681      0.010265
O	      6.03954      5.10800      3.67273        -0.004444      0.001999      0.006348
O	      4.43728      4.37937      1.15800        -0.003107      0.004747      0.006438
O	      1.37011      4.50243      1.24659        -0.003210      0.008482      0.000964
O	      3.07649      3.43509      5.95186        -0.000919      0.010071     -0.006246
O	      5.97437      3.52856      5.97218         0.001532     -0.006538      0.004551
O	      4.43278      2.52132      3.64547         0.016799      0.015516     -0.010489
O	      1.67837      2.58532      3.71536        -0.009770      0.003359     -0.014755
O	      5.84052      1.71949      1.37648         0.000055     -0.003238      0.011609
O	      2.98326      1.75338      1.34918        -0.001845     -0.010528      0.000557
