# total energy = -101.97598728 eV
 
CRYSTAL
PRIMVEC
0.000792 2.122888 2.133614 
3.950029 -0.000422 0.001886 
-0.003346 9.036399 -9.077671 
PRIMCOORD
16 1
Li	      3.93667      0.38570     -0.36569        -0.008462      0.001752      0.014506
Li	      1.97125      2.38689     -0.20565        -0.001527     -0.001649     -0.005935
Li	      0.01196      2.06527     -2.02993        -0.001667      0.000773     -0.017635
Li	      0.00259      6.65924     -2.43088         0.002892     -0.004365      0.011115
Ti	      2.08261      4.50652     -2.33882         0.231409     -0.108130      0.144488
Ti	      1.91653      8.93885     -6.85959        -0.070704      0.254935     -0.237238
Ni	      1.96828      6.55945     -4.48607         0.005411      0.005248     -0.020760
Ni	      3.94655      8.73179     -4.53181         0.008985      0.051428     -0.050089
O	      3.94344      6.71229     -4.64588         0.008317     -0.116408      0.121487
O	      1.97660      8.90587     -4.70861        -0.013137      0.052610     -0.045240
O	      3.91432      4.58931     -2.48320        -0.247718      0.005500      0.005824
O	      1.96504      6.58871     -2.39341        -0.005460     -0.106629      0.110509
O	      3.94699      2.24829     -0.09392        -0.002579     -0.004611     -0.002315
O	      1.96292      2.56439     -2.57158         0.025545      0.111185     -0.147843
O	      0.00708      8.74884     -6.67321         0.081735      0.064549     -0.065878
O	      1.97615     10.81886     -6.60586        -0.013039     -0.206186      0.185003
