# total energy = -224.80651307 eV
 
CRYSTAL
PRIMVEC
5.901054 0.021700 -0.036187 
1.402123 7.716212 0.041648 
1.576020 2.595855 7.275335 
PRIMCOORD
36 1
Li	      1.39148      7.62513      0.00550        -0.002323      0.003679     -0.003982
Li	      4.56689      2.62722      7.15763         0.008105     -0.010242     -0.004824
Li	      5.95091      1.77533      4.98806        -0.004549      0.011795      0.000738
Li	      2.97636      5.28626      0.10872         0.001150     -0.001527     -0.004289
Li	      5.94243      6.85100      4.99217        -0.006868     -0.007121      0.001876
Li	      4.40379      5.92215      2.33525        -0.003499      0.004328     -0.004593
Li	      4.34103      2.68239     -0.10429         0.003810     -0.001077      0.001365
Li	      1.49448      2.48015     -0.07862         0.011184      0.002137      0.003159
Li	      5.83548      3.57444      2.33292         0.003471     -0.000132      0.008696
Sc	      3.02435      6.82984      4.98011        -0.010150     -0.006314      0.010070
Mn	      1.42275      6.00646      2.41703        -0.007679      0.014309      0.003624
V	      4.50332      0.92798      2.32867         0.002980     -0.008932      0.002079
Cr	      1.51818      0.88448      2.42364        -0.003990     -0.008779      0.020398
Cr	      4.46592      9.44797      4.96087         0.004197     -0.013656     -0.007667
Fe	      1.42675      4.25150      4.92622         0.005556     -0.004986     -0.004226
Co	      5.73459      5.14149     -0.01277        -0.008541      0.007163     -0.010350
Cu	      4.54741      4.25240      4.86343         0.007612      0.000410      0.003876
Ni	      2.97011      3.49777      2.33486         0.003470      0.004152      0.006319
O	      5.92230      8.61535      6.07533         0.000747     -0.010076      0.003897
O	      2.99228      8.54262      6.06992         0.003280      0.012626      0.004390
O	      7.35437      7.69768      3.51717         0.008756      0.013936     -0.017694
O	      4.44402      7.88494      3.62167        -0.011791      0.015373     -0.009724
O	      2.78772      6.93223      1.39944        -0.006421     -0.001725      0.008168
O	      5.90707      6.94108      1.40402        -0.008326     -0.001273      0.002235
O	      7.46838      5.97383      6.02009        -0.000195     -0.000513      0.010075
O	      4.47091      5.86383      5.93483         0.012830     -0.010784     -0.002025
O	      2.81333      5.20421      3.54066         0.007671     -0.008668     -0.003781
O	      6.02658      5.16519      3.59861        -0.003301      0.009545     -0.003088
O	      4.40395      4.32902      1.14996         0.012329      0.002198     -0.003215
O	      1.40629      4.50116      1.27810        -0.002775      0.011864     -0.004691
O	      2.99570      3.43087      5.94584        -0.000657      0.006356      0.000712
O	      6.03583      3.46074      6.02137        -0.005872     -0.003901     -0.005767
O	      4.39483      2.56339      3.61655        -0.001614     -0.003697     -0.001835
O	      1.64085      2.54023      3.65774         0.004387     -0.012189     -0.004672
O	      5.84666      1.68815      1.39369         0.007749      0.004369     -0.002107
O	      2.99251      1.66886      1.31193        -0.020734     -0.008646      0.006853
