# total energy = -224.59606162 eV
 
CRYSTAL
PRIMVEC
5.976712 0.043376 -0.061983 
1.447650 7.669888 -0.047104 
1.574913 2.505659 7.248142 
PRIMCOORD
36 1
Li	      2.97843     10.12600      7.18373        -0.013814     -0.002266     -0.004949
Li	      4.62164      2.54871      7.11227         0.012570      0.008850     -0.000578
Li	      7.40512      9.33698      4.90704         0.000007     -0.004142     -0.000966
Li	      2.93931      5.21493     -0.01257        -0.020086     -0.001864      0.001782
Li	      5.93900      6.80683      4.82432         0.001041      0.005180      0.004671
Li	      4.43414      5.92525      2.23655        -0.011396      0.008064      0.003470
Li	      4.43006      2.56237     -0.11254        -0.002219      0.012975     -0.001428
Li	      1.54812      2.71984     -0.01755        -0.000955     -0.006262     -0.009510
Li	      5.94952      3.51808      2.19269        -0.008507     -0.004197     -0.012226
Sc	      1.53466      0.85935      2.33609         0.003769     -0.002086     -0.014193
Mn	      1.44330      5.90596      2.36180        -0.004381     -0.018244      0.005968
V	      4.56074      0.95722      2.30890         0.003085     -0.011026     -0.001015
Cr	      4.59967      4.22157      4.74739        -0.002626     -0.019929      0.015065
Cr	      3.02704      6.76875      4.86980        -0.009485      0.004292     -0.019071
Fe	      1.51156      4.16014      4.88670         0.021191      0.002748      0.004292
Co	      7.33355      7.56587      7.09969        -0.011754     -0.002318      0.008887
Cu	      4.54057      9.32358      4.86166         0.011759     -0.007957      0.015692
Ni	      3.07733      3.47640      2.29079        -0.002899     -0.003378     -0.007710
O	      5.90715      8.54411      5.97707        -0.005505      0.010391     -0.007587
O	      2.73198      8.29593      6.13666        -0.001256     -0.006060      0.002227
O	      7.48454      7.62303      3.46496         0.005446      0.002832      0.013577
O	      4.46331      7.79490      3.70363        -0.002237     -0.003055      0.001197
O	      2.81968      6.76999      1.29618         0.010064      0.005780      0.005707
O	      5.83528      7.04824      1.33170        -0.007522     -0.024795     -0.012157
O	      7.60978      5.92178      5.89683        -0.002369      0.012470      0.024723
O	      4.44855      5.84923      5.85103         0.011283     -0.006329      0.004958
O	      3.08803      5.07996      3.66754         0.006736      0.015590     -0.003450
O	      6.12052      5.04438      3.58657        -0.005715      0.003438     -0.004873
O	      4.55113      4.36566      1.00859         0.009107     -0.002058     -0.001501
O	      1.47029      4.33318      1.26843         0.001295      0.009439      0.000783
O	      3.13539      3.29583      5.85937         0.013177      0.014320     -0.013021
O	      6.05469      3.44399      5.87372        -0.018265      0.002652     -0.004989
O	      4.62899      2.54441      3.41346         0.009299      0.016266      0.013772
O	      1.77983      2.50931      3.72899         0.012673      0.004400      0.008565
O	      5.94150      1.68993      1.21831         0.010623     -0.004220     -0.004149
O	      3.07750      1.72388      1.23614        -0.012133     -0.009502     -0.011966
