# total energy = -224.66262398 eV
 
CRYSTAL
PRIMVEC
5.985126 0.108394 -0.146724 
1.533708 7.693373 -0.057616 
1.501177 2.535661 7.201650 
PRIMCOORD
36 1
Li	      1.50642      7.56677     -0.13247        -0.003061     -0.004853      0.005385
Li	      4.55265      2.66989      6.97225         0.005223      0.002675     -0.002322
Li	      5.95676      1.80891      4.85740        -0.000726     -0.004627     -0.005030
Li	      2.99667      5.25532     -0.03923         0.002574     -0.001366      0.004434
Li	      5.98894      6.83679      4.73283        -0.000577      0.002506     -0.005386
Li	      4.57062      5.96004      2.27321        -0.002907     -0.002797     -0.003034
Li	      4.37316      2.62572     -0.15664         0.006802     -0.000153     -0.005170
Li	      3.14054      5.15885      6.97329         0.005727      0.003397     -0.002792
Li	      6.02100      3.61228      2.24292        -0.002614     -0.002527     -0.000093
Sc	      1.51785      0.87421      2.29517        -0.007745      0.002230     -0.000146
Mn	      1.52134      5.93440      2.32571        -0.012025      0.010167     -0.006333
V	      4.53465      0.94269      2.27107         0.015714     -0.005411      0.001095
Cr	      4.55607      9.41701      4.80199         0.004769      0.004338      0.002892
Cr	      3.06171      6.83668      4.77831        -0.001085     -0.009182     -0.006136
Fe	      1.42454      4.21627      4.87768         0.000946      0.005179     -0.003083
Co	      5.74789      5.09566     -0.13591        -0.008000     -0.017093     -0.005119
Cu	      4.53559      4.28913      4.70643        -0.000400     -0.005114      0.009337
Ni	      3.03010      3.48490      2.26796         0.001645      0.000330      0.017681
O	      6.06846      8.61427      5.91929         0.005537      0.010941      0.003911
O	      3.09125      8.47347      5.84032         0.007940     -0.012170     -0.003547
O	      7.52849      7.71092      3.32039        -0.001811     -0.002904      0.000927
O	      4.57758      7.81965      3.50123         0.003942      0.002419     -0.010709
O	      2.88547      6.80676      1.26396        -0.003699     -0.000306     -0.011980
O	      6.06859      6.93599      1.20037        -0.005254     -0.000127     -0.004226
O	      7.63827      6.13072      5.77496         0.000804     -0.007305     -0.006798
O	      4.48645      5.93635      5.74874         0.002372     -0.003567      0.007043
O	      2.96270      5.17824      3.52925         0.007269      0.003693      0.010557
O	      6.23058      5.24733      3.37168        -0.004784     -0.004140      0.010189
O	      4.57950      4.34024      1.02771        -0.017340      0.001567      0.002989
O	      1.49167      4.41397      1.19134        -0.002589      0.002284     -0.001109
O	      2.85958      3.36302      5.96906         0.003719      0.005970     -0.003451
O	      5.99290      3.56697      5.80970         0.005719      0.009422     -0.005959
O	      4.39937      2.54432      3.55651        -0.000751      0.007568     -0.006801
O	      1.62161      2.57594      3.61306        -0.003239      0.003487      0.010452
O	      5.78118      1.75071      1.27762        -0.001863      0.001321      0.006704
O	      3.04749      1.68769      1.20048        -0.000230      0.004148      0.005630
