# total energy = -224.41080118 eV
 
CRYSTAL
PRIMVEC
5.922804 0.016402 -0.023412 
1.400426 7.689447 0.022130 
1.595123 2.563816 7.210691 
PRIMCOORD
36 1
Li	      1.59813      2.56093      7.18609        -0.010549     -0.000842      0.003700
Li	      4.28623      7.63188      0.03265        -0.001922     -0.008794      0.007611
Li	      7.40816      9.37429      4.93784         0.008983      0.002483     -0.000860
Li	      4.54564      7.62809      7.18763        -0.008725     -0.004353     -0.004272
Li	      5.95293      6.86563      4.90553        -0.000532     -0.001660     -0.010705
Li	      4.32958      5.97369      2.23108         0.009048      0.003915     -0.002215
Li	      4.40566      2.69455     -0.05030        -0.004190     -0.001689     -0.002347
Li	      1.46746      2.64717      0.03323         0.001060     -0.001761     -0.001082
Li	      5.90792      3.51548      2.23769         0.004704      0.003795     -0.005358
Sc	      4.60095      4.28638      4.83941         0.005047      0.006198      0.006305
Mn	      1.44158      5.96368      2.35731        -0.024207      0.008052     -0.000716
V	      4.46518      0.88723      2.26169        -0.004943     -0.019736     -0.001326
Cr	      4.47881      9.32532      4.91511        -0.017826      0.004499     -0.006341
Cr	      2.99707      6.83039      4.84512         0.000014      0.002178      0.000945
Fe	      1.54293      4.19288      4.87460         0.001813     -0.007482      0.013644
Co	      7.36652      7.64855      7.13155         0.005459     -0.006720      0.013438
Cu	      1.48978      0.88222      2.38283        -0.000894      0.000686      0.020053
Ni	      2.99272      3.47754      2.29993        -0.001143     -0.003755     -0.002518
O	      6.00069      8.55077      6.07074        -0.001299      0.004046     -0.000082
O	      2.94885      8.44657      5.97610         0.009337      0.004648     -0.005486
O	      7.40618      7.61885      3.52864         0.007900     -0.005959     -0.003462
O	      4.40897      7.77065      3.66331         0.001549     -0.005543      0.000842
O	      2.77178      6.88135      1.32425         0.010380     -0.001817     -0.005799
O	      5.77463      7.02467      1.32743         0.004684      0.020919      0.015882
O	      7.53416      6.05178      5.99972         0.007709     -0.016917     -0.015559
O	      4.42284      5.97913      5.91085        -0.005798     -0.013058     -0.007511
O	      3.00809      5.11095      3.66521        -0.000580      0.008412      0.002138
O	      6.11364      5.07368      3.60796         0.011220      0.001803      0.001773
O	      4.48714      4.33395      1.12121        -0.007449     -0.000188      0.005314
O	      1.37882      4.42646      1.17690        -0.000830      0.010756      0.001653
O	      3.04795      3.35545      5.93691        -0.005887      0.005901     -0.007625
O	      6.07820      3.49848      5.96687        -0.000041      0.011807     -0.010256
O	      4.43829      2.40506      3.58412         0.000225     -0.001550      0.007863
O	      1.69701      2.54462      3.67179         0.008699     -0.007234      0.008216
O	      5.85653      1.67700      1.35234        -0.009299      0.007381     -0.009504
O	      2.99514      1.69404      1.31115         0.008280      0.001578     -0.006355
