# total energy = -224.79216913 eV
 
CRYSTAL
PRIMVEC
5.982693 0.021659 -0.056060 
1.420815 7.658384 -0.041950 
1.574548 2.500864 7.242478 
PRIMCOORD
36 1
Li	      1.57554      2.48964      7.21465        -0.005789     -0.004041     -0.003312
Li	      4.33894      7.61093     -0.06646        -0.005723     -0.002564      0.004049
Li	      7.38688      9.28224      4.90879         0.001581      0.001565      0.004260
Li	      4.49051      7.61821      7.17390         0.001599      0.008883      0.001031
Li	      5.93982      6.82157      4.84895         0.001644      0.003647      0.003947
Li	      4.39388      5.95239      2.21634         0.005957     -0.003393      0.002016
Li	      4.47157      2.58207     -0.10541        -0.010947      0.007295     -0.003751
Li	      1.50057      2.68094      0.03824        -0.001682     -0.005136     -0.009828
Li	      5.98467      3.46724      2.19545        -0.003041     -0.007115      0.003686
Sc	      4.63096      4.21487      4.78146         0.008650     -0.010207     -0.005365
Mn	      1.45851      5.92119      2.34878        -0.007118      0.006916     -0.007309
V	      4.56654      0.93126      2.27023         0.006698     -0.010743     -0.004320
Cr	      1.53461      0.85763      2.39346         0.011061      0.005944      0.004192
Cr	      2.98556      6.76774      4.86375         0.002384      0.007654     -0.003381
Fe	      1.53182      4.15011      4.87689         0.001550     -0.003639      0.010161
Co	      7.35277      7.56485      7.14634        -0.013603      0.008939     -0.000840
Cu	      4.48986      9.28574      4.84658        -0.005752      0.015404      0.001453
Ni	      3.06001      3.44736      2.27976        -0.005026      0.008619     -0.009092
O	      5.87577      8.51365      5.95149         0.005044     -0.002300      0.011504
O	      2.70316      8.29134      6.12435        -0.001595     -0.000163     -0.001244
O	      7.51347      7.63164      3.45548        -0.012189     -0.010024     -0.003006
O	      4.39177      7.77619      3.65285         0.009551      0.000580      0.006977
O	      2.82688      6.83262      1.31010         0.013305     -0.015383     -0.001314
O	      5.83362      6.99323      1.30602        -0.005804     -0.003637      0.001514
O	      7.58181      5.89567      5.90154        -0.011037      0.009571      0.019129
O	      4.41725      5.90184      5.89380         0.009162     -0.001634      0.002715
O	      3.04049      5.08268      3.64938        -0.007088      0.024745      0.000033
O	      6.15550      5.04353      3.55597         0.010914      0.003476      0.014329
O	      4.54468      4.33436      1.01934         0.017725      0.012739     -0.001142
O	      1.46868      4.34688      1.24068         0.004228     -0.010957      0.007202
O	      3.06345      3.23630      5.88790        -0.003399      0.001711     -0.003401
O	      6.10827      3.42060      5.91053        -0.006512      0.000651     -0.012471
O	      4.61310      2.49252      3.38147        -0.005138     -0.001318     -0.008871
O	      1.76005      2.48025      3.67995         0.003178     -0.007747     -0.004823
O	      6.01344      1.63807      1.25787         0.003706     -0.013975      0.003189
O	      3.02658      1.66649      1.27411        -0.006493     -0.014362     -0.017918
