# total energy = -224.58222946 eV
 
CRYSTAL
PRIMVEC
5.959960 -0.023471 0.021183 
1.357501 7.669195 -0.003425 
1.642813 2.515581 7.263545 
PRIMCOORD
36 1
Li	      0.02321      0.05247      0.00092        -0.009498     -0.002079      0.000066
Li	      5.91629     10.13282      7.25471        -0.000337     -0.000855     -0.000366
Li	      7.41441      9.28059      4.96231        -0.004795      0.002028     -0.005014
Li	      4.51319      7.60130      7.24446         0.003585     -0.004267     -0.004059
Li	      6.00942      6.80235      4.93141         0.002091     -0.001672     -0.002094
Li	      4.33082      5.97329      2.32111        -0.004518      0.005017     -0.002026
Li	      4.45317      2.51521      0.05156         0.004073     -0.000008      0.002231
Li	      1.45329      2.67800      0.04707         0.000559      0.002969     -0.000412
Li	      6.01037      3.43898      2.30650        -0.000058      0.000325     -0.001814
Sc	      4.62524      4.23248      4.87704         0.015468      0.006172      0.000488
Mn	      1.44852      5.92165      2.37042        -0.002521      0.009104      0.008021
V	      4.51877      0.80428      2.32841         0.007738      0.023515      0.004564
Cr	      1.51086      0.85105      2.40987        -0.008655     -0.006671      0.016844
Cr	      4.44809      9.26342      4.91818         0.004735     -0.004066     -0.010386
Fe	      1.56039      4.17934      4.89457        -0.009578     -0.012724      0.012764
Co	      7.31565      7.59501      7.20956         0.007742      0.006621     -0.016283
Cu	      3.04269      6.75251      4.92264         0.001453     -0.009373      0.005091
Ni	      3.02504      3.41781      2.33138         0.006708     -0.000976      0.007400
O	      5.95821      8.48471      6.05991        -0.002250     -0.001805      0.004515
O	      2.92014      8.38315      6.03362        -0.001144     -0.001810     -0.001424
O	      7.35462      7.60292      3.49547        -0.001916     -0.000822     -0.000165
O	      4.34786      7.72341      3.61161        -0.006972     -0.002116      0.001777
O	      2.78452      6.85681      1.32923         0.000528     -0.001260     -0.010382
O	      5.79120      6.94030      1.31512        -0.000981     -0.011354     -0.009586
O	      7.58705      5.93142      6.03805         0.008946     -0.002176     -0.006020
O	      4.48922      5.91833      5.99642        -0.007697      0.002474     -0.006658
O	      3.02770      5.07115      3.70110         0.007812      0.002020     -0.008740
O	      6.14069      5.00718      3.65350         0.002939     -0.002010     -0.006090
O	      4.55063      4.30010      1.13933        -0.011327     -0.006791      0.015637
O	      1.49356      4.36076      1.26539         0.008478      0.000824      0.009856
O	      3.06012      3.30507      5.96206        -0.002654     -0.007668      0.006195
O	      6.10588      3.43541      6.02063         0.008475      0.005349     -0.005929
O	      4.45454      2.37322      3.61563        -0.012336     -0.004470      0.002177
O	      1.68367      2.47492      3.69849         0.002414     -0.001182      0.005347
O	      5.95055      1.63529      1.38898        -0.017116      0.004948     -0.003133
O	      3.02543      1.64197      1.32499         0.010609      0.014791     -0.002391
