# total energy = -224.57700150 eV
 
CRYSTAL
PRIMVEC
5.951895 -0.033698 0.030741 
1.342098 7.658738 -0.026307 
1.647976 2.486450 7.271374 
PRIMCOORD
36 1
Li	      5.96104      0.03594      0.08997         0.006519      0.000726      0.012647
Li	      4.64251      2.49688      7.26903         0.015749      0.000642      0.001189
Li	      7.39183      9.26505      4.94180        -0.003608      0.008267     -0.004182
Li	      2.89438      5.06531      0.05380         0.003291     -0.000126     -0.005460
Li	      6.02923      6.69220      4.92593        -0.007678     -0.003058     -0.003830
Li	      4.33498      5.96752      2.34068        -0.009712      0.002088     -0.001727
Li	      4.41112      2.50194      0.01926        -0.006416     -0.000965     -0.002553
Li	      3.09237      5.09102      7.24767        -0.000343      0.003548      0.002734
Li	      6.00341      3.38171      2.36756        -0.009379      0.006996     -0.000525
Sc	      4.46838      9.20117      4.99542         0.008194     -0.005521      0.003067
Mn	      1.42352      5.91105      2.35800        -0.004452      0.003377      0.023641
V	      4.51370      0.81001      2.33961         0.006655      0.005665     -0.003256
Cr	      1.50927      0.84578      2.40435         0.002006      0.001156      0.010096
Cr	      4.57593      4.20048      4.82706         0.001358      0.002434      0.003801
Fe	      1.51986      4.15532      4.86547        -0.009707     -0.009464      0.006390
Co	      7.33809      7.52778      7.24668        -0.002134      0.000479      0.009608
Cu	      3.03104      6.70499      4.90562         0.010519     -0.014485     -0.000343
Ni	      3.01689      3.40502      2.33196         0.003346      0.003825      0.000112
O	      5.97176      8.42522      6.08770        -0.005718     -0.000719      0.000620
O	      2.87621      8.32335      6.06376         0.007497      0.006179     -0.001975
O	      7.33601      7.57498      3.49139        -0.004714      0.011981     -0.004863
O	      4.33030      7.68040      3.54660         0.002942      0.004235     -0.013464
O	      2.76153      6.82828      1.30387         0.002702      0.002830     -0.008303
O	      5.78564      6.93609      1.29232         0.000045     -0.006960     -0.011366
O	      7.57232      5.88562      6.03816        -0.000577     -0.002941      0.003838
O	      4.48986      5.84234      5.92618        -0.004153     -0.007450      0.003512
O	      3.06045      5.03240      3.72478         0.001949      0.003328     -0.010856
O	      6.09675      4.99107      3.68544         0.005162      0.004037     -0.004104
O	      4.52271      4.28011      1.13377         0.001952      0.000968     -0.009127
O	      1.47791      4.34906      1.26421        -0.002946      0.001294     -0.002200
O	      3.07549      3.38052      5.95908         0.003331     -0.013098     -0.000870
O	      6.01859      3.43046      5.97559         0.003128     -0.001928      0.005775
O	      4.48859      2.41617      3.59851         0.003239     -0.010447      0.001389
O	      1.63817      2.48911      3.66214        -0.012510      0.002906      0.006260
O	      5.94772      1.60625      1.37026        -0.013085     -0.007729     -0.004310
O	      3.02982      1.63428      1.32183         0.007548      0.007931     -0.001363
