# total energy = -224.83067939 eV
 
CRYSTAL
PRIMVEC
5.964117 0.020004 -0.066140 
1.414586 7.662510 -0.057957 
1.556386 2.489103 7.260464 
PRIMCOORD
36 1
Li	      1.37843      7.62685     -0.05469        -0.015836      0.000629      0.000243
Li	      4.54426      2.50770      7.15829         0.002058      0.003084     -0.000785
Li	      7.31853      9.29528      4.90003        -0.003832      0.008322      0.002939
Li	      2.93574      5.25352      0.03238         0.000236      0.001465     -0.000141
Li	      5.93832      6.75486      4.85502         0.001632     -0.002296      0.010185
Li	      4.39778      5.94486      2.23579        -0.002520     -0.000199      0.000319
Li	      4.38038      2.58414     -0.19381        -0.000852      0.000145     -0.002912
Li	      1.49837      2.60921      0.03590         0.010641     -0.007672     -0.005827
Li	      5.94299      3.46690      2.18779        -0.001314     -0.008101      0.011461
Sc	      3.03346      6.77007      4.92217        -0.000721     -0.003620     -0.002539
Mn	      1.43072      5.92402      2.35604         0.009102     -0.006037     -0.006437
V	      4.54998      0.93691      2.28055        -0.001507     -0.001374      0.001221
Cr	      1.53011      0.85509      2.38346         0.000336      0.014409      0.002749
Cr	      4.57542      4.17057      4.72671         0.000708     -0.006120     -0.003301
Fe	      1.48377      4.13413      4.87961         0.000246     -0.001362      0.003034
Co	      7.30761      7.53661      7.16396        -0.013142      0.003370      0.015252
Cu	      4.48936      9.30203      4.81025        -0.012893      0.006895     -0.001572
Ni	      3.04292      3.44436      2.27667        -0.001694      0.006021     -0.000458
O	      5.80301      8.49070      5.94774         0.013331     -0.001701      0.004862
O	      2.65588      8.33882      6.19941        -0.001716      0.003396      0.002157
O	      7.45655      7.64164      3.40914         0.002150     -0.001957      0.008519
O	      4.43511      7.80842      3.59102         0.008023      0.004034      0.010548
O	      2.80979      6.81845      1.31478         0.009070     -0.009777     -0.004736
O	      5.80569      7.01054      1.29371        -0.003469     -0.010517     -0.005192
O	      7.52032      5.85875      5.93862        -0.004708      0.007152      0.012224
O	      4.46924      5.77386      5.87816        -0.006828      0.005462     -0.008960
O	      3.05189      5.01902      3.64380        -0.005261      0.018157     -0.004231
O	      6.10016      5.02815      3.58424        -0.001884      0.002955      0.001628
O	      4.50852      4.35279      1.01649         0.020774      0.000995     -0.014364
O	      1.44421      4.35987      1.24504        -0.001217      0.003976      0.007110
O	      3.10256      3.26505      5.83531         0.000105      0.005119     -0.007383
O	      6.01799      3.39250      5.85605         0.007588     -0.005943     -0.003036
O	      4.61298      2.53058      3.39315         0.004189     -0.008256     -0.004787
O	      1.74929      2.46062      3.68316         0.003837     -0.005345      0.000364
O	      5.99984      1.63261      1.24501        -0.006619     -0.002995     -0.002669
O	      3.00785      1.67055      1.26242        -0.008011     -0.012313     -0.015484
