# total energy = -217.02908156 eV
 
CRYSTAL
PRIMVEC
5.968410 -0.020360 0.028807 
1.363905 7.641038 0.016959 
1.655670 2.524162 7.256556 
PRIMCOORD
36 1
Li	      7.31331      7.57660      0.01978         0.006188      0.001833      0.006772
Li	      4.67568      2.55002      7.14055         0.007348     -0.002243      0.000082
Li	      6.06687      1.68649      5.01824         0.008348     -0.003711      0.001981
Li	      2.90938      5.17375      0.06823        -0.004670     -0.003368      0.003210
Li	      5.99095      6.75924      4.93836         0.005245     -0.003244     -0.000144
Li	      4.42898      5.86467      2.42839        -0.006192      0.003328      0.002215
Li	      4.39134      2.51302     -0.00260        -0.000217      0.000557     -0.002551
Li	      3.14217      5.15601      7.18068        -0.007314     -0.002821     -0.000443
Li	      5.93191      3.47004      2.39483        -0.011575      0.004769     -0.006517
Sc	      1.55462      0.84696      2.40557        -0.007505     -0.011771     -0.016154
Mn	      1.41204      5.89597      2.38854        -0.002752      0.000906     -0.015591
V	      4.56995      0.84305      2.37056         0.021685      0.001918     -0.012761
Cr	      4.50487      9.29094      4.95105        -0.000844      0.008024      0.011758
Fe	      1.52420      4.20421      4.89395         0.007094      0.007480      0.003250
Co	      7.35780      7.57862      7.24802        -0.003309     -0.004717      0.009476
Cu	      4.66674      4.18823      4.92793         0.000618      0.009109      0.003841
Cu	      3.08292      6.73002      4.95047        -0.005002      0.002551      0.007304
Ni	      3.04123      3.43126      2.36792         0.000917      0.005884     -0.007027
O	      5.97969      8.48680      6.08964         0.000782      0.000617     -0.004217
O	      2.97025      8.36840      6.04552         0.007709     -0.003570     -0.003874
O	      7.29887      7.54472      3.51037        -0.003917     -0.001433      0.002869
O	      4.48617      7.72135      3.63943        -0.001634      0.003821     -0.001869
O	      2.76135      6.76523      1.33532         0.000108      0.006309      0.010190
O	      5.95104      6.76134      1.38299         0.009829     -0.006384      0.007657
O	      7.61299      5.93213      6.05536         0.002059     -0.001513     -0.006089
O	      4.52878      5.80569      5.92605         0.002056     -0.007510     -0.003511
O	      2.80923      5.19196      3.54852        -0.007544      0.001078     -0.002247
O	      6.08145      5.01133      3.66126         0.002034      0.000823      0.005228
O	      4.52485      4.27688      1.13662         0.001739      0.004176     -0.003194
O	      1.45430      4.34829      1.29827        -0.003990      0.015583      0.006765
O	      3.10906      3.37898      5.94732        -0.000164     -0.006889     -0.006126
O	      6.18306      3.38463      6.07368         0.004761      0.000081     -0.007638
O	      4.46035      2.47421      3.63415         0.002398     -0.003849     -0.003967
O	      1.69092      2.50376      3.72975        -0.000483     -0.002400      0.005954
O	      5.87816      1.63662      1.40492        -0.019951     -0.012914      0.013514
O	      3.09015      1.62486      1.30075        -0.003855     -0.000507      0.001855
