# total energy = -216.69719424 eV
 
CRYSTAL
PRIMVEC
5.979531 0.032421 -0.051802 
1.434182 7.653439 -0.062097 
1.583403 2.481596 7.246106 
PRIMCOORD
36 1
Li	     -0.02372     -0.01742     -0.01389        -0.012279     -0.001813      0.003321
Li	      4.62315      2.52575      7.11955         0.007823      0.010152      0.002827
Li	      7.40982      9.27235      4.87341         0.007092     -0.001103      0.000458
Li	      2.91194      5.19416     -0.02263         0.001082     -0.008781     -0.008734
Li	      5.93492      6.79738      4.79194         0.005019     -0.005559      0.010796
Li	      4.41368      5.91484      2.24764        -0.006286      0.000414      0.006465
Li	      4.45537      2.51833     -0.05974         0.000917      0.008327      0.008465
Li	      1.55130      2.70677     -0.00102        -0.005198      0.004388     -0.014069
Li	      5.94359      3.50039      2.17891         0.003281     -0.005526      0.010389
Sc	      1.52497      0.84019      2.35996         0.012686      0.014163      0.016741
Mn	      1.43707      5.89238      2.36059         0.000601     -0.004393      0.009649
V	      4.55779      0.92621      2.30596        -0.011667     -0.022474     -0.008115
Cr	      4.60848      4.18252      4.73683        -0.010558      0.023849      0.003064
Fe	      1.53458      4.15464      4.86495         0.008308      0.002094     -0.002538
Co	      7.31622      7.54546      7.09812         0.008647     -0.010443      0.004623
Cu	      4.53928      9.28143      4.84413        -0.021615     -0.001452     -0.012749
Cu	      3.04455      6.72413      4.89566         0.002903      0.008530     -0.002548
Ni	      3.07455      3.44953      2.27469        -0.004928     -0.005248     -0.011481
O	      5.90405      8.51040      5.96430         0.003918      0.003331     -0.002004
O	      2.73119      8.25662      6.10966         0.003638      0.005424     -0.007919
O	      7.40930      7.61758      3.41962        -0.002216      0.013022      0.004165
O	      4.47348      7.76910      3.67553         0.005503      0.011981      0.006298
O	      2.80989      6.74867      1.28913         0.012477     -0.016571     -0.012199
O	      5.81754      7.00596      1.28634         0.009067      0.005422      0.005118
O	      7.61539      5.88960      5.93062        -0.006418      0.000645      0.012476
O	      4.48630      5.80473      5.87419        -0.003205     -0.016091     -0.010757
O	      3.08941      5.04718      3.68004        -0.002247      0.002225      0.004917
O	      6.12631      5.01636      3.59005        -0.007479     -0.000706      0.009453
O	      4.53946      4.34304      1.00799        -0.003133     -0.010623      0.004360
O	      1.47117      4.32149      1.26854        -0.005931     -0.003563      0.002826
O	      3.14383      3.26707      5.85722         0.003823      0.017713     -0.009714
O	      6.06967      3.43052      5.87298        -0.007042      0.002398     -0.006795
O	      4.62599      2.53123      3.40488         0.010651     -0.000840     -0.003365
O	      1.78399      2.48564      3.73971         0.002910     -0.006553      0.002358
O	      5.94524      1.67368      1.21768        -0.005070     -0.006277     -0.012006
O	      3.06149      1.70263      1.22988         0.004928     -0.006060     -0.003774
