# total energy = -217.02953787 eV
 
CRYSTAL
PRIMVEC
5.863657 0.030288 -0.046166 
1.404915 7.749201 0.119932 
1.557944 2.685195 7.264659 
PRIMCOORD
36 1
Li	      5.83318      0.13255      0.04666         0.002098      0.004596     -0.007092
Li	      4.57934      2.75024      7.22637         0.005776      0.010720     -0.005114
Li	      5.93383      1.85480      4.94204        -0.000481     -0.000607     -0.000265
Li	      2.92951      5.19392      0.15535         0.006349     -0.011816     -0.002829
Li	      5.90576      6.88269      4.96798        -0.002890     -0.004321     -0.001977
Li	      4.36154      6.02687      2.39134         0.001516      0.007305      0.005575
Li	      4.34891      2.69334     -0.06467         0.010878     -0.006112     -0.016888
Li	      3.01460      5.17928      7.21069         0.005408      0.010506     -0.004625
Li	      5.87336      3.55450      2.38505        -0.005672      0.002555     -0.002165
Sc	      4.43822      9.48300      5.11068         0.003884      0.004390     -0.009247
Mn	      1.40361      6.09163      2.46132        -0.020661      0.006242      0.000391
V	      4.46124      0.98700      2.34731        -0.000979     -0.013385      0.008847
Cr	      2.95321      6.89885      4.91585         0.006216      0.005274     -0.004638
Fe	      1.43768      4.31782      4.92778         0.001360      0.001497      0.002830
Co	      5.74353      5.12109      0.01057         0.007432      0.006244      0.010500
Cu	      1.50323      0.94054      2.38136         0.006813     -0.015794      0.005443
Cu	      4.52704      4.41698      4.92208        -0.004924     -0.002278     -0.004628
Ni	      2.97003      3.53706      2.34642        -0.002058      0.005363     -0.000078
O	      5.94580      8.66566      6.21882         0.008691     -0.003044      0.006472
O	      2.86753      8.49354      6.10876        -0.006022      0.000517      0.004587
O	      7.28146      7.70187      3.61631        -0.007733      0.000153      0.009075
O	      4.32279      7.89410      3.68626         0.003262      0.013077      0.004652
O	      2.73403      6.93897      1.41900        -0.002290      0.002832     -0.001720
O	      5.84599      7.07388      1.48624         0.002302     -0.004011      0.005671
O	      7.44679      6.07325      5.98501         0.001202     -0.001698      0.001129
O	      4.36058      6.07588      5.92290         0.000509     -0.000207      0.003905
O	      2.80383      5.28916      3.58645        -0.003110     -0.013351     -0.004471
O	      5.95892      5.22054      3.63900        -0.000270     -0.002919     -0.007330
O	      4.44368      4.38060      1.16204        -0.000895      0.000426     -0.000440
O	      1.36299      4.56976      1.29767        -0.006899     -0.001611     -0.003803
O	      3.02255      3.55223      5.95806        -0.001562     -0.012079     -0.010525
O	      6.01077      3.53862      6.01805        -0.003267      0.001516     -0.004885
O	      4.43856      2.47325      3.55291        -0.009455     -0.002113      0.016943
O	      1.60613      2.68406      3.65684         0.009027      0.006463      0.016226
O	      5.86112      1.71542      1.33697        -0.000761      0.002794     -0.010815
O	      3.04636      1.76264      1.27469        -0.002795      0.002876      0.001288
