# total energy = -216.63938116 eV
 
CRYSTAL
PRIMVEC
5.986862 -0.071059 0.080493 
1.302020 7.572279 -0.069924 
1.702277 2.398627 7.218414 
PRIMCOORD
36 1
Li	      5.97709     -0.04137      0.08868         0.009354     -0.007420     -0.000728
Li	      3.00851     -0.03571      0.02657         0.005400      0.000634      0.003586
Li	      7.47195      9.05471      4.89876         0.003307     -0.001541      0.002503
Li	      2.97711      4.84693      0.00655        -0.000384      0.000298      0.011123
Li	      6.04824      6.54820      4.93645         0.006856     -0.000043      0.004083
Li	      4.32189      5.85581      2.29407        -0.008210     -0.000303     -0.005011
Li	      4.37397      2.58021     -0.04590        -0.003245     -0.003768      0.000422
Li	      3.12087      5.00475      7.14638        -0.012940      0.001783     -0.003206
Li	      5.89706      3.36728      2.31241        -0.011890      0.004896     -0.006537
Sc	      4.53786      8.99367      4.94778         0.011263      0.006965      0.006036
Mn	      1.39779      5.84996      2.33265        -0.019204     -0.000507      0.010025
V	      4.50771      0.76814      2.28942         0.000874      0.009571      0.000395
Cr	      4.63388      4.09847      4.83050        -0.012239     -0.012298      0.001127
Fe	      1.55343      4.07513      4.85222         0.006411      0.002961     -0.007464
Co	      7.46970      7.39393      7.20510         0.018607     -0.014002     -0.008503
Cu	      1.51734      0.81189      2.44619         0.009104      0.006445      0.001370
Cu	      3.13641      6.57455      4.87874        -0.021071     -0.005143      0.001548
Ni	      3.01053      3.35532      2.32792         0.002492     -0.008987     -0.012369
O	      6.06152      8.23282      6.10330         0.001343      0.003538      0.002646
O	      2.90245      8.20027      5.96841        -0.006711      0.017791      0.011736
O	      7.30371      7.54056      3.37903        -0.010033      0.003959      0.001005
O	      4.65278      7.43529      3.60565        -0.021206     -0.007685      0.006017
O	      2.73162      6.80474      1.30738         0.010155      0.005726     -0.011004
O	      5.78657      6.78088      1.22580        -0.002946     -0.002445      0.006889
O	      7.63329      5.79462      6.06386         0.014741      0.011298     -0.010648
O	      4.61301      5.64495      5.98987         0.015921      0.002253      0.012029
O	      3.08279      4.93170      3.70466         0.002599      0.000352     -0.000131
O	      6.18971      4.85789      3.70781        -0.000278      0.002923      0.005312
O	      4.48392      4.22304      1.15920         0.003820     -0.000176     -0.005828
O	      1.38052      4.33104      1.17226         0.000859     -0.004009     -0.007475
O	      3.10804      3.28464      5.93560        -0.000731     -0.001386     -0.001411
O	      6.07788      3.27798      5.94412        -0.004463      0.002287     -0.004729
O	      4.50482      2.35098      3.56369         0.006669     -0.005452     -0.008110
O	      1.69860      2.36807      3.62270        -0.000140     -0.006156     -0.003631
O	      5.68520      1.58733      1.29296         0.010368     -0.000864      0.001402
O	      2.98533      1.51321      1.41214        -0.004453     -0.001492      0.007533
