# total energy = -216.30898409 eV
 
CRYSTAL
PRIMVEC
5.937039 0.011130 -0.023074 
1.396974 7.649112 -0.013121 
1.597178 2.516197 7.204621 
PRIMCOORD
36 1
Li	      1.61185      2.51205      7.17298        -0.003893      0.000488     -0.000500
Li	      4.30076      7.61186     -0.00927        -0.003827     -0.005675      0.004814
Li	      7.43835      9.30638      4.89688         0.005706      0.002250      0.001459
Li	      4.53943      7.55997      7.14196        -0.003633     -0.002633     -0.000793
Li	      5.95373      6.80329      4.88905         0.002822      0.002224     -0.006453
Li	      4.33423      5.90883      2.21084         0.001082     -0.000991      0.001124
Li	      4.42035      2.63411     -0.03812        -0.011328      0.004043      0.000340
Li	      1.46443      2.62811      0.04812        -0.001434     -0.003860     -0.001123
Li	      5.92547      3.45521      2.21699        -0.002493      0.004541     -0.001676
Sc	      4.59265      4.21897      4.81258        -0.010999      0.010829     -0.009627
Mn	      1.42935      5.90850      2.34335        -0.000445      0.001768      0.000880
V	      4.47744      0.84670      2.29515         0.001303      0.010597      0.008264
Cr	      3.00907      6.79392      4.82984        -0.003310     -0.010620     -0.003634
Fe	      1.53479      4.16072      4.86655         0.011865     -0.001889     -0.005476
Co	      7.34438      7.57016      7.11277        -0.003934     -0.010988      0.007372
Cu	      1.49068      0.85851      2.36948        -0.003470      0.006861      0.015074
Cu	      4.46421      9.26954      4.88302         0.005413      0.006693      0.006448
Ni	      2.99167      3.42750      2.28493        -0.002153      0.004925      0.007207
O	      6.06539      8.47095      6.05992         0.007983      0.000252      0.005244
O	      2.95224      8.37462      5.97852        -0.001366      0.001478      0.009424
O	      7.41976      7.57955      3.48586         0.002521     -0.002625     -0.001302
O	      4.37229      7.73844      3.60283         0.001602      0.000246     -0.007251
O	      2.79089      6.82828      1.30306         0.002493      0.000973     -0.005018
O	      5.78252      6.94440      1.30416        -0.005709     -0.000009     -0.002954
O	      7.55103      5.99975      5.97365         0.001521     -0.005773     -0.002930
O	      4.42543      5.93443      5.87681         0.009661     -0.008212     -0.002640
O	      3.00217      5.07807      3.65356         0.005062      0.002266     -0.002310
O	      6.11598      5.04278      3.59676        -0.001433     -0.004457      0.000543
O	      4.49032      4.28404      1.11235         0.006336      0.008876     -0.011053
O	      1.39316      4.39848      1.16897        -0.005461      0.002630     -0.007126
O	      3.04067      3.31665      5.92041         0.000068      0.000565      0.000899
O	      6.07825      3.45225      5.94498         0.009668      0.000246      0.005323
O	      4.46755      2.39479      3.53564         0.001283     -0.002741      0.000504
O	      1.68049      2.52284      3.62599         0.001356     -0.004979      0.007140
O	      5.90864      1.65397      1.32231        -0.013587      0.003150     -0.003605
O	      2.99630      1.67060      1.27342         0.000733     -0.010451     -0.006587
