# total energy = -224.40546969 eV
 
CRYSTAL
PRIMVEC
5.970950 -0.027283 0.039230 
1.355134 7.669722 0.000809 
1.666303 2.514988 7.269694 
PRIMCOORD
36 1
Li	      5.95157     -0.06095      0.01407         0.002654     -0.005854      0.001102
Li	      4.68324      2.49963      7.20297        -0.009648      0.002090      0.000375
Li	      7.41444      9.33630      4.99537         0.001259     -0.004668     -0.003245
Li	      2.89020      5.14067      0.04654        -0.000456     -0.009908     -0.005538
Li	      6.01423      6.77332      4.93135         0.004171      0.001503      0.000062
Li	      4.37416      5.92891      2.33716        -0.000171      0.002158      0.013362
Li	      4.37681      2.54689      0.00638        -0.017496     -0.000743     -0.006661
Li	      3.17225      5.23368      7.26256        -0.015970     -0.002410     -0.002775
Li	      5.96093      3.47239      2.35829        -0.004974      0.003159      0.009708
Sc	      1.53011      0.83168      2.40741        -0.003366      0.004378     -0.000966
Mn	      1.40972      5.89180      2.37009        -0.015426      0.012859      0.009703
V	      4.54469      0.81388      2.33930         0.009546      0.006757      0.016023
Cr	      4.61044      4.21806      4.87110        -0.002396     -0.014206     -0.014614
Cr	      4.49295      9.29361      4.94810        -0.006920     -0.003734      0.007138
Fe	      1.55226      4.19583      4.91587         0.004454      0.012247     -0.004913
Co	      7.32883      7.60854      7.22636         0.010571      0.000457      0.013573
Cu	      3.10739      6.73006      4.97282        -0.004063      0.005714     -0.005411
Ni	      3.04958      3.42484      2.37718         0.007619      0.007897     -0.006307
O	      5.98340      8.48920      6.07583         0.012618     -0.012815      0.005068
O	      2.95841      8.37525      6.03930        -0.004338      0.009283      0.011937
O	      7.27635      7.56020      3.49223        -0.003079      0.001287     -0.018431
O	      4.46678      7.74183      3.62759         0.020700      0.013049     -0.002542
O	      2.78232      6.77811      1.33327        -0.007848      0.000384     -0.009378
O	      5.82194      6.87759      1.28275         0.014641      0.004391      0.004304
O	      7.62337      5.93455      6.07617         0.003195      0.003322      0.004203
O	      4.56895      5.84146      5.98548        -0.013224     -0.004906     -0.004565
O	      3.08620      5.07616      3.76466         0.007193     -0.012447     -0.005843
O	      6.13364      4.97573      3.70892        -0.001710     -0.000460      0.003653
O	      4.55177      4.29901      1.15325        -0.000702     -0.006872     -0.010007
O	      1.50406      4.30978      1.30467        -0.006041      0.006184     -0.002982
O	      3.11646      3.34474      5.97203         0.008108      0.000055      0.004838
O	      6.07204      3.44740      6.00703        -0.012425      0.002170     -0.000538
O	      4.47011      2.47184      3.66639         0.006145      0.002358      0.004422
O	      1.69981      2.49252      3.75827        -0.003475      0.000960     -0.003710
O	      5.86732      1.63187      1.40672         0.019224     -0.004039     -0.009943
O	      3.07565      1.65125      1.31729         0.001630     -0.019600      0.008900
