# total energy = -217.29817833 eV
 
CRYSTAL
PRIMVEC
5.912335 0.044259 -0.075575 
1.433009 7.680693 0.056360 
1.541267 2.609856 7.289356 
PRIMCOORD
36 1
Li	     -0.01913     -0.00769     -0.00375         0.008519      0.012191      0.007606
Li	      5.87336     10.28456      7.24799         0.011844      0.001585     -0.004928
Li	      7.32826      9.43979      5.03563         0.005281     -0.000886      0.014907
Li	      4.46369      7.71844      7.26528        -0.004662      0.004562      0.005788
Li	      5.90997      6.93885      4.96944        -0.012683      0.017823      0.005367
Li	      4.39051      5.96358      2.28339         0.012276     -0.022728     -0.005580
Li	      4.44233      2.62429     -0.08646        -0.005425     -0.006362     -0.003761
Li	      1.46297      2.61538     -0.00255        -0.015242     -0.006643     -0.007501
Li	      5.91123      3.53009      2.22433         0.024356     -0.004910     -0.007404
Sc	      4.52503      4.36592      4.81337        -0.018081      0.009022     -0.014707
Mn	      1.47017      5.98974      2.45665        -0.005518     -0.025363      0.003065
V	      4.53001      1.01396      2.35450         0.016320     -0.002987      0.018206
Cr	      1.52399      0.88228      2.43724         0.006222     -0.006835      0.012008
Fe	      1.49768      4.24777      4.91985         0.009593      0.021678     -0.009506
Co	      7.29156      7.74450      7.23723         0.002789      0.020541     -0.010024
Cu	      4.43672      9.38295      4.98266         0.000825      0.001995     -0.009469
Cu	      2.99501      6.91292      5.01695         0.005528     -0.005827      0.007907
Ni	      3.00463      3.46033      2.26895         0.005673      0.001109     -0.003316
O	      5.84646      8.63491      6.11377         0.004349     -0.004081     -0.000292
O	      2.65757      8.48751      6.32154         0.001118      0.009347      0.005893
O	      7.41922      7.69120      3.51594        -0.008224      0.017619      0.012124
O	      4.40350      7.86586      3.76317        -0.005364     -0.007146     -0.010499
O	      2.81332      6.87674      1.44076        -0.007335      0.000114     -0.002729
O	      5.93823      6.96381      1.49256         0.004245     -0.006469     -0.008852
O	      7.51306      5.98554      5.95255        -0.007548     -0.004709      0.000244
O	      4.40357      5.97321      5.99735         0.013636     -0.005992      0.000441
O	      2.88273      5.09551      3.51868        -0.002895      0.000316     -0.007425
O	      6.05629      5.16198      3.57926        -0.000354      0.012929     -0.004903
O	      4.49187      4.34740      1.05925        -0.016629     -0.001379     -0.016497
O	      1.42637      4.46627      1.31543        -0.002881     -0.004006     -0.001753
O	      3.00916      3.35919      5.91426        -0.011967      0.003409      0.013633
O	      5.98868      3.54551      5.92987        -0.013293     -0.013415      0.009322
O	      4.57263      2.55306      3.41139        -0.003831     -0.004727      0.012703
O	      1.68212      2.53206      3.67676         0.000754      0.007378      0.000796
O	      5.94195      1.68358      1.26746         0.008513      0.002868      0.009409
O	      3.00575      1.62922      1.28520         0.000091     -0.010019     -0.010272
