# total energy = -217.18542392 eV
 
CRYSTAL
PRIMVEC
5.868457 -0.022370 -0.006961 
1.338701 7.708748 0.106492 
1.585692 2.639118 7.295483 
PRIMCOORD
36 1
Li	      5.83444      0.01875      0.04855         0.000450      0.000915     -0.009487
Li	      4.60865      2.65172      7.27654        -0.002992     -0.010462     -0.004518
Li	      5.96424      1.78598      4.99166        -0.002732     -0.007557      0.003439
Li	      2.90199      5.15773      0.16849         0.000289      0.005756      0.007405
Li	      5.92161      6.81993      5.01953         0.003306     -0.018745      0.002840
Li	      4.31713      5.94519      2.43068        -0.003426      0.012967     -0.003781
Li	      4.32368      2.61367     -0.01387        -0.002070     -0.004323     -0.003608
Li	      3.03290      5.14804      7.21144         0.019055      0.005134      0.001796
Li	      5.80631      3.50562      2.42018         0.003294      0.009964      0.004167
Sc	      4.41627      9.39786      5.13061        -0.007354      0.003389      0.002118
Mn	      1.36277      6.03194      2.45942        -0.004448      0.015971     -0.022247
V	      4.47609      0.91669      2.36467        -0.012068     -0.014362     -0.019168
Cr	      1.49935      0.88944      2.44173         0.011805     -0.010076     -0.023301
Fe	      1.46314      4.30271      4.92166        -0.004698     -0.007048      0.003697
Co	      5.70505      5.08572      0.03677        -0.006507      0.003971      0.001092
Cu	      4.54069      4.31961      4.94259         0.007769      0.005590     -0.006392
Cu	      2.98951      6.83941      5.01014        -0.003463     -0.004770      0.010420
Ni	      2.94809      3.47862      2.37682        -0.002562      0.016080     -0.000318
O	      5.90998      8.58377      6.24640        -0.014814     -0.005744     -0.009745
O	      2.82447      8.48594      6.18629         0.012433      0.000518     -0.013110
O	      7.23187      7.65573      3.58820         0.001273     -0.004186      0.014745
O	      4.34305      7.82977      3.66914         0.006941      0.008826      0.016865
O	      2.71049      6.94401      1.43728         0.006531     -0.008569      0.008711
O	      5.81899      6.92295      1.47637        -0.001845     -0.004578      0.005488
O	      7.45830      5.97842      6.05952        -0.004248     -0.004445      0.009028
O	      4.41499      5.94372      5.97758         0.000111     -0.005108     -0.013615
O	      2.75286      5.20570      3.54692        -0.000569      0.010886      0.007620
O	      5.93821      5.13033      3.68797        -0.015843      0.004166      0.004632
O	      4.40221      4.31289      1.15419         0.016233      0.014667      0.002177
O	      1.33154      4.51957      1.29986        -0.002043     -0.008780     -0.000801
O	      3.02435      3.50354      5.98406        -0.000924     -0.004007      0.003876
O	      6.02808      3.47474      6.07727         0.017535     -0.003689     -0.011873
O	      4.40422      2.52432      3.59655        -0.019652      0.010037      0.010006
O	      1.57628      2.55319      3.66696         0.003279      0.002322      0.001254
O	      5.81965      1.65083      1.38292         0.006763     -0.010186      0.005699
O	      2.97256      1.68543      1.33018        -0.004811      0.005475      0.014887
