# total energy = -217.06272078 eV
 
CRYSTAL
PRIMVEC
5.950194 -0.013889 0.043898 
1.368141 7.657108 0.049534 
1.672187 2.558047 7.278807 
PRIMCOORD
36 1
Li	      1.35118      7.58099      0.01374         0.000075      0.005781     -0.009388
Li	      4.66389      2.57492      7.17281        -0.000282      0.003430      0.003799
Li	      6.09908      1.71736      5.04306         0.008609      0.002166     -0.001269
Li	      2.89559      5.16731      0.08615         0.006511     -0.000472      0.000366
Li	      5.99738      6.79316      5.01412         0.006827     -0.005352     -0.003829
Li	      4.39865      5.95373      2.41155        -0.003925      0.012257     -0.012398
Li	      4.34338      2.57073     -0.10190        -0.007428     -0.006813      0.005752
Li	      3.08629      5.10429      7.23500        -0.010725     -0.000686      0.007179
Li	      5.95493      3.47546      2.44770        -0.013158      0.015614     -0.012432
Sc	      3.12360      6.77914      4.95153         0.008702     -0.001145     -0.006875
Mn	      1.42706      5.95955      2.42554        -0.003503     -0.010845      0.009775
V	      4.53319      0.91976      2.34429        -0.001998     -0.009805     -0.009281
Cr	      4.54468      9.32558      4.98689        -0.011177      0.008207      0.003648
Fe	      1.49973      4.18039      4.93311         0.003404     -0.012787     -0.013992
Co	      7.34029      7.58373      7.31464        -0.001284      0.007883      0.009533
Cu	      1.53115      0.85406      2.41468         0.004356     -0.002400     -0.004304
Cu	      4.66008      4.25679      4.94469        -0.005343     -0.004168     -0.011019
Ni	      2.99719      3.45565      2.37621        -0.008535     -0.002989     -0.004114
O	      6.01647      8.53084      6.17655         0.004945     -0.001354     -0.000820
O	      3.01573      8.46368      6.10679         0.004076     -0.001150      0.003155
O	      7.38619      7.60040      3.56690        -0.001313     -0.000304      0.011443
O	      4.64358      7.71466      3.77682        -0.001349     -0.002679     -0.006612
O	      2.76101      6.84974      1.38710         0.002013      0.003689      0.011446
O	      5.93102      6.87108      1.49275         0.001035     -0.001360      0.004399
O	      7.56024      5.95073      6.12290        -0.008324      0.002314     -0.005575
O	      4.51101      5.87953      6.05714        -0.001812     -0.004937      0.000884
O	      2.81614      5.17661      3.53480         0.002783      0.004387      0.003071
O	      6.07974      5.03371      3.72642        -0.000553      0.002524      0.007410
O	      4.49263      4.31101      1.20923         0.008877      0.000163     -0.009200
O	      1.42315      4.42157      1.30602        -0.004025      0.002027      0.001821
O	      3.14737      3.42179      5.92468         0.000007     -0.004604      0.003685
O	      6.19247      3.37736      6.12009        -0.000071      0.005661      0.002424
O	      4.51750      2.39770      3.60882         0.002200      0.003352      0.008476
O	      1.74237      2.48664      3.69519         0.003001     -0.003132      0.001466
O	      5.76812      1.67692      1.37247         0.006881     -0.007591      0.007876
O	      3.08386      1.56994      1.38643         0.010502      0.005117      0.003498
