# total energy = -223.41140572 eV
 
CRYSTAL
PRIMVEC
6.030703 -0.059339 0.106443 
1.071308 7.601879 -0.065405 
1.855334 2.347845 7.265855 
PRIMCOORD
36 1
Li	      1.20645      7.53528      0.08006         0.002598      0.002637      0.005233
Li	      4.21779      7.51510      0.18807         0.012782      0.000409      0.008229
Li	      5.70863      8.23799      2.36137         0.006249      0.002247     -0.004496
Li	      2.85450      8.15095      2.46020         0.006345      0.003423      0.005125
Li	      5.80788      5.10980      0.21630         0.002470      0.003134     -0.002314
Li	      5.87571      6.64817      4.75335        -0.000377     -0.008085     -0.004500
Li	      4.38107      6.00817      2.35943         0.005269     -0.008639     -0.003166
Li	      3.26851      4.71233      7.24862         0.016307     -0.010355      0.007953
Li	      1.64848      4.05006      4.88636         0.002820     -0.009929      0.005784
Sc	      2.89272      3.29952      2.45275        -0.002181      0.003337     -0.004169
Mn	      7.30230      9.10326      4.86505         0.010371     -0.011799     -0.013900
Mn	      2.90612      6.59586      4.80959        -0.004111     -0.012304     -0.003546
V	      6.32791      4.80479      7.24180        -0.010213      0.005312     -0.004685
Cr	      4.58886      4.09850      4.89744         0.004760      0.000008     -0.020992
Fe	      2.75005      5.14988     -0.02270        -0.003355      0.003239      0.013189
Co	      4.30465      9.13395      4.84093        -0.005332      0.004134      0.000412
Cu	      5.95685      3.31871      2.42855        -0.006602      0.005031     -0.006007
Ni	      7.18131      5.93736      2.42180         0.000769      0.003904     -0.002245
O	      5.76651      6.70221      1.24241         0.017609      0.002252      0.005858
O	      5.79978      8.40315      5.89757        -0.012057      0.010261      0.004389
O	      3.05635      8.15687      6.00670         0.003860     -0.000453      0.001246
O	      7.34018      7.53132      3.76133         0.005284      0.011604     -0.001522
O	      4.24963      7.49915      3.78267        -0.003100     -0.003026      0.017314
O	      2.71331      6.63886      1.18342        -0.007368     -0.010585     -0.010444
O	      7.54927      5.67254      6.13155        -0.005915     -0.000691      0.002002
O	      4.70790      5.66786      6.13533         0.007783      0.006360      0.007647
O	      3.11493      4.95523      3.76239        -0.012938      0.009156     -0.000823
O	      6.01520      4.81033      3.64717        -0.009980      0.000937      0.012488
O	      4.20343      4.12831      0.98019        -0.002760      0.000454     -0.014769
O	      1.40346      4.16008      1.27446        -0.008924     -0.006803      0.005256
O	      3.21554      3.13845      5.94768        -0.001550     -0.015328     -0.001532
O	      6.11576      3.31060      6.05043        -0.002450      0.011293      0.001757
O	      4.55880      2.48589      3.65854        -0.002835      0.000662      0.007941
O	      1.74189      2.25599      3.83570        -0.000296      0.001380     -0.004619
O	      5.74872      1.84436      1.09558        -0.008014      0.000979     -0.011793
O	      3.09500      1.74348      1.12672         0.005080      0.005844      0.003698
