# total energy = -223.77126901 eV
 
CRYSTAL
PRIMVEC
5.888726 0.066041 -0.074199 
1.205028 7.756715 0.136316 
1.647366 2.648794 7.260479 
PRIMCOORD
36 1
Li	      1.26113      7.71607      0.17445        -0.002656     -0.005026     -0.015033
Li	      2.85599      0.11214      0.00012        -0.004289     -0.004899      0.002729
Li	      5.65401      8.48185      2.48845        -0.002817      0.001776      0.003443
Li	      2.85963      8.48982      2.60607         0.005769      0.000505     -0.005032
Li	      5.70069      5.34659      0.09019        -0.001719     -0.006631     -0.007797
Li	      5.78113      7.05915      4.78089        -0.002844      0.005341     -0.006769
Li	      4.34111      6.28049      2.53620         0.001524     -0.004874     -0.007092
Li	      3.06409      5.05767      7.21174         0.001206      0.008960      0.003799
Li	      1.50810      4.33789      4.91975         0.002393      0.003426      0.005692
Sc	      2.88668      3.40546      2.45300         0.002116     -0.002704     -0.008342
Mn	      7.18977      6.19328      2.43162        -0.003258      0.005784     -0.000543
Mn	      5.87794      3.49332      2.40984        -0.001990      0.008205      0.005506
V	      6.12935      5.21914      7.19319        -0.002300     -0.005447      0.019864
Cr	      4.39247      4.47407      4.88578         0.005764      0.005584      0.010326
Fe	      2.78490      5.26677      0.00057        -0.006811      0.004384      0.003696
Co	      3.05793      1.79365      4.83639        -0.005718     -0.002509      0.010339
Cu	      7.21212      9.49526      4.95862         0.000552     -0.005468     -0.004873
Ni	      2.86896      6.95011      4.88288         0.002192      0.004239     -0.000124
O	      5.85029      6.86823      1.37509        -0.007526      0.010536      0.004311
O	      5.73412      8.81054      6.07822         0.006382      0.004735     -0.000299
O	      2.92557      8.67201      6.09570         0.001133     -0.002536     -0.001727
O	      7.26386      7.67081      3.56029         0.001181     -0.005056     -0.004925
O	      4.28355      7.97989      3.85061        -0.000214      0.005579      0.003808
O	      2.69777      6.78554      1.31673        -0.000701     -0.002858     -0.008288
O	      7.25974      6.11378      6.13304         0.006577      0.009040     -0.009180
O	      4.42668      6.10172      6.11904        -0.002882     -0.008036     -0.005941
O	      2.91027      5.20713      3.66509         0.016021     -0.012738      0.002958
O	      5.86856      5.23280      3.58793         0.000872     -0.000926      0.003913
O	      4.23244      4.24786      1.05083         0.005833     -0.004511      0.000735
O	      1.43859      4.44331      1.34114        -0.011990      0.000827     -0.002554
O	      3.06488      3.45761      5.92792        -0.008497     -0.012296     -0.001972
O	      5.87048      3.80030      6.08098        -0.000513     -0.002605      0.001100
O	      4.44313      2.73982      3.77787         0.004692      0.004762      0.000476
O	      1.51877      2.50204      3.74045         0.006015      0.003023      0.000505
O	      5.72266      1.89203      1.02501        -0.002191     -0.003542     -0.000828
O	      3.01612      1.86467      1.13397        -0.001309      0.005957      0.008119
