# total energy = -223.19702861 eV
 
CRYSTAL
PRIMVEC
5.976073 0.016177 -0.001393 
1.158178 7.634394 0.011649 
1.740134 2.466940 7.246012 
PRIMCOORD
36 1
Li	      1.18904      7.65926      0.09495        -0.000156     -0.008813     -0.004867
Li	      2.97013      0.07131      0.03422        -0.015658     -0.005582      0.007413
Li	      5.77589      8.34961      2.35987        -0.015218      0.002396      0.000683
Li	      2.75975      8.31393      2.46660         0.009567     -0.003043      0.007987
Li	      5.75183      5.22157      0.07903        -0.014373      0.007748     -0.008489
Li	      5.83895      6.83020      4.74463         0.003929     -0.008028     -0.003241
Li	      4.37108      6.08428      2.38379        -0.013877      0.007280      0.012659
Li	      3.14981      4.82074      7.19969        -0.009417      0.015668      0.023107
Li	      1.59929      4.11420      4.91862         0.005952      0.004339     -0.005895
Sc	      2.94400      3.34334      2.46587         0.004523      0.003475     -0.011300
Mn	      2.84477      6.71018      4.81032         0.017234     -0.002778     -0.007415
Mn	      5.96988      3.37890      2.38614        -0.007227      0.002650     -0.003221
V	      6.19970      5.02538      7.16986         0.005516      0.002171      0.016626
Cr	      4.55379      4.19961      4.88976        -0.010119      0.019313     -0.011021
Fe	      2.78859      5.18527     -0.00923         0.018983      0.003977     -0.004094
Co	      4.28391      9.25416      4.85988         0.007657     -0.000741      0.002536
Cu	      7.20753      6.05519      2.37806         0.001755     -0.006023     -0.014488
Ni	      7.28343      9.27096      4.88384        -0.011867     -0.003382     -0.002753
O	      5.79441      6.77950      1.23434        -0.005730     -0.009623      0.000310
O	      5.71418      8.51002      5.94961        -0.013461      0.006195      0.002243
O	      2.96316      8.33167      5.98010         0.001056      0.003142      0.009802
O	      7.26264      7.55800      3.62071         0.012764      0.010349      0.008381
O	      4.20021      7.63097      3.79904        -0.010655      0.006628      0.005617
O	      2.68814      6.70447      1.21646        -0.008062     -0.020397     -0.000590
O	      7.48271      5.86835      6.07720         0.014877      0.002380     -0.007395
O	      4.61611      5.81030      6.11651        -0.000908     -0.000894     -0.003602
O	      3.07712      5.04659      3.76243         0.001924      0.002478     -0.007123
O	      5.94681      4.92012      3.54320         0.002089     -0.007531     -0.006916
O	      4.27963      4.23218      1.08431         0.014189     -0.005751     -0.006930
O	      1.40969      4.28052      1.31727         0.000958      0.000955      0.008147
O	      3.17112      3.22583      5.92053        -0.005124     -0.005505      0.000888
O	      6.05112      3.43867      6.01301         0.010717     -0.014390     -0.017861
O	      4.56308      2.56461      3.66181         0.008568      0.001097      0.013571
O	      1.62565      2.39817      3.69532        -0.009318     -0.003242      0.016071
O	      5.87559      1.91224      1.16095         0.009307      0.002673     -0.008497
O	      3.12440      1.80866      1.12213        -0.000396      0.000809     -0.000343
