# total energy = -222.94558877 eV
 
CRYSTAL
PRIMVEC
6.046063 -0.039313 0.070048 
1.100575 7.608461 -0.066064 
1.823975 2.360431 7.235909 
PRIMCOORD
36 1
Li	      1.22495      7.53977      0.09397         0.001218      0.004927     -0.005901
Li	      4.26067      7.52563      0.19056        -0.000248      0.004564      0.002120
Li	      5.73274      8.24885      2.30597         0.003607      0.001197      0.003869
Li	      2.86147      8.16596      2.46753         0.002862      0.000756     -0.000744
Li	      5.81621      5.15035      0.11714        -0.000447      0.009552      0.003628
Li	      5.84159      6.72173      4.66860        -0.001911     -0.004496      0.001722
Li	      4.36792      6.04357      2.34889         0.007156     -0.005827      0.002251
Li	      3.24236      4.69743      7.21884         0.022914     -0.011273      0.012879
Li	      1.68069      4.06871      4.85714         0.002075     -0.004287      0.006135
Sc	      2.92321      3.28585      2.42402        -0.014229      0.003540     -0.002128
Mn	      7.34860      9.07775      4.82497        -0.001520     -0.008797     -0.002659
Mn	      5.95547      3.36109      2.37700         0.004715      0.000557     -0.006756
V	      6.30931      4.81354      7.12324         0.011374      0.003663     -0.001020
Cr	      4.56351      4.14305      4.87004        -0.001710     -0.004402      0.002947
Fe	      2.76836      5.16356     -0.04572        -0.007233      0.000531      0.004169
Co	      4.32329      9.15262      4.79936        -0.003681      0.010844     -0.001705
Cu	      2.88661      6.60772      4.77070        -0.009283      0.006197     -0.008201
Ni	      7.23407      5.99023      2.39414        -0.000738     -0.000537     -0.007412
O	      5.80034      6.69740      1.20769         0.006896      0.003675      0.004899
O	      5.82610      8.40687      5.87175        -0.004899     -0.000849      0.001604
O	      3.07879      8.21174      5.97838         0.001481      0.004207     -0.000779
O	      7.26117      7.61969      3.63309        -0.005373     -0.009627     -0.002922
O	      4.27272      7.57800      3.74226        -0.005795     -0.007281     -0.002126
O	      2.73960      6.63162      1.16936         0.004848      0.002047      0.000518
O	      7.53801      5.66734      6.11548        -0.005636      0.003165     -0.004670
O	      4.79752      5.66476      6.18021         0.007238     -0.004238      0.003797
O	      3.10864      4.94284      3.71718        -0.000277      0.007523      0.010661
O	      5.99936      4.82842      3.58352        -0.007525      0.003051     -0.009443
O	      4.29091      4.11988      1.03950        -0.001658     -0.000626     -0.004672
O	      1.39211      4.16468      1.27152         0.005243     -0.009258      0.009905
O	      3.20724      3.15958      5.90695         0.000080      0.004932      0.000834
O	      6.13523      3.31044      6.00930        -0.000629     -0.000279      0.006442
O	      4.57422      2.54521      3.62348         0.005169     -0.002371     -0.002687
O	      1.64702      2.30529      3.74341        -0.011362     -0.001402     -0.005234
O	      5.79754      1.87837      1.12637        -0.005829      0.008633     -0.006560
O	      3.11821      1.72753      1.12313         0.003106     -0.008014     -0.002764
