# total energy = -99.63780025 eV
 
CRYSTAL
PRIMVEC
0.003201 2.097469 2.181586 
5.672500 4.899208 -7.229600 
-3.803359 2.375403 -2.450159 
PRIMCOORD
16 1
Li	     -0.11026      0.70849     -0.59930        -0.001859     -0.016786      0.027193
Li	     -2.08691      4.65636     -2.49617        -0.003901      0.006004     -0.010015
Li	     -0.27872      4.24932     -4.47087        -0.032332      0.008621     -0.017707
Li	     -2.09631      2.84935     -0.72197        -0.052052     -0.020759      0.013912
Ti	      2.09336      6.76204     -4.87358         0.000580      0.024330     -0.032802
Ti	      4.08247      4.59626     -4.81312         0.086732      0.047054     -0.053704
Ni	     -0.18716      2.48279     -2.50970         0.024315      0.021873     -0.006665
Ni	      1.87441      4.36371     -2.34081         0.162625      0.144760     -0.108421
O	      0.12208      7.03202     -5.18190         0.181920      0.049997     -0.043525
O	     -0.04489      4.44980     -2.59572        -0.181159      0.114990     -0.045075
O	      2.05137      4.72957     -5.00104         0.028746      0.057223     -0.051598
O	     -0.24613      2.65451     -0.34531         0.002097     -0.142011      0.044755
O	      1.79269      2.43495     -2.58630         0.085955     -0.169312      0.138742
O	      2.19801      6.66933     -6.88697        -0.084954     -0.054603      0.063674
O	     -2.08685      2.61901     -2.61849        -0.159350      0.014020     -0.014676
O	      4.11480      6.58147     -4.61475        -0.057363     -0.085401      0.095911
