# total energy = -223.74542117 eV
 
CRYSTAL
PRIMVEC
5.966906 0.030522 -0.028953 
1.174511 7.657202 0.004126 
1.710207 2.475729 7.239608 
PRIMCOORD
36 1
Li	      1.26524      7.61817      0.09529        -0.003639     -0.004261     -0.003206
Li	      2.86705      0.09597      0.00682        -0.015595      0.002753     -0.002394
Li	      5.68282      8.38088      2.30540        -0.003206     -0.004861      0.005207
Li	      2.84189      8.33968      2.47450         0.004255      0.003318      0.002902
Li	      5.79997      5.16590      0.08594         0.001697     -0.008430     -0.007087
Li	      5.79059      6.83831      4.71004         0.001598      0.006014     -0.000081
Li	      4.35539      6.11390      2.44568         0.002700     -0.000983     -0.005856
Li	      3.15166      4.86484      7.19975        -0.001004      0.013713      0.003140
Li	      1.57093      4.19522      4.82475         0.008317     -0.003398     -0.002881
Sc	      2.92578      3.31768      2.40003         0.002954      0.000276      0.005524
Mn	      7.28006      9.22891      4.79963         0.000913      0.000006     -0.004077
Mn	      7.21105      6.06501      2.38610         0.002643     -0.002908      0.009256
V	      6.26688      4.98860      7.13203        -0.010123      0.000070     -0.014690
Cr	      4.48092      4.30660      4.83990         0.004000      0.006456     -0.008506
Fe	      2.79524      5.15787     -0.03667         0.007398     -0.004264     -0.009859
Co	      3.11921      1.66473      4.83806        -0.007144      0.005197      0.009906
Cu	      2.87464      6.76423      4.81977        -0.005663     -0.004635     -0.001953
Ni	      5.94069      3.41153      2.37249        -0.002670     -0.008522     -0.002881
O	      5.88898      6.71251      1.29070        -0.008066      0.013302      0.004058
O	      5.71213      8.55694      5.97950        -0.002834      0.002755     -0.004164
O	      3.01708      8.39840      6.00977         0.006067      0.012216      0.002198
O	      7.19074      7.60005      3.47365        -0.001273     -0.004804     -0.002920
O	      4.24101      7.73750      3.77507         0.012579     -0.000616     -0.004553
O	      2.67459      6.68663      1.26505        -0.001105      0.006617     -0.001655
O	      7.43472      5.88163      6.08348         0.001810     -0.007312      0.008159
O	      4.66216      5.82485      6.16716        -0.003033      0.010359      0.013955
O	      2.98128      5.10506      3.65937         0.008040     -0.003707     -0.001406
O	      5.94790      5.06488      3.54249         0.006039      0.009639      0.001855
O	      4.32832      4.16485      1.04260        -0.001999     -0.009183      0.000781
O	      1.43347      4.32432      1.29157         0.000611      0.002308      0.000412
O	      3.14541      3.29496      5.89727        -0.011221     -0.009494     -0.001002
O	      6.00737      3.54526      6.00263         0.003150     -0.000357      0.003202
O	      4.47428      2.64024      3.67792        -0.005767     -0.007100     -0.008027
O	      1.56773      2.44468      3.63551         0.004345      0.000777      0.001809
O	      5.79105      1.85063      1.03494         0.004502     -0.007312      0.008575
O	      3.09189      1.75692      1.11686         0.000725     -0.003627      0.006259
