# total energy = -223.02296173 eV
 
CRYSTAL
PRIMVEC
6.060802 -0.082112 0.110389 
1.048889 7.631537 -0.022878 
1.859144 2.391874 7.271512 
PRIMCOORD
36 1
Li	      1.18210      7.54031      0.08581         0.008209     -0.000085      0.001460
Li	      4.22347      7.52825      0.20554         0.000999      0.004079     -0.001983
Li	      5.72611      8.23002      2.41495        -0.005794      0.009627     -0.010759
Li	      2.82572      8.19043      2.51054         0.002221     -0.000238      0.001360
Li	      5.79071      5.17007      0.15867         0.002923      0.003403     -0.003397
Li	      5.88478      6.74130      4.78758        -0.000884     -0.000676     -0.006229
Li	      4.34184      6.04904      2.36591         0.011993     -0.004702     -0.001183
Li	      3.25819      4.74205      7.27447         0.006186     -0.005305      0.006780
Li	      1.66791      4.04961      4.93758         0.005254     -0.000609      0.005422
Sc	      2.89970      3.31496      2.48931        -0.010815      0.015157     -0.001614
Mn	      2.87160      6.66766      4.83320        -0.009373     -0.018072      0.015264
Mn	      5.96176      3.31057      2.46962        -0.001735      0.005209     -0.015074
V	      6.31916      4.83035      7.24320         0.023545      0.016362     -0.005028
Cr	      4.58606      4.13318      4.93249        -0.012539      0.002073      0.001079
Fe	      2.78879      5.16519      0.00942        -0.004966     -0.001663     -0.001798
Co	      4.29524      9.18551      4.88847         0.018679     -0.013826      0.006302
Cu	      7.31302      9.08611      4.88953         0.000317     -0.004235     -0.002889
Ni	      7.18543      5.96757      2.41551         0.003100     -0.008169     -0.009362
O	      5.76403      6.71510      1.25677        -0.007009      0.002339      0.002672
O	      5.78814      8.48021      5.92089        -0.006594      0.003671      0.004845
O	      3.12833      8.17385      6.08492         0.004882     -0.004555      0.001374
O	      7.37882      7.46607      3.78701         0.000409      0.001169     -0.010119
O	      4.24617      7.55938      3.82511         0.000299     -0.002261     -0.006219
O	      2.71883      6.65119      1.21219         0.004711     -0.006502     -0.001753
O	      7.59620      5.70056      6.19307        -0.006584      0.003243     -0.004087
O	      4.77667      5.69681      6.19923        -0.004915      0.013333      0.015763
O	      3.12146      4.99434      3.81467         0.001646     -0.002674     -0.000945
O	      6.00533      4.79299      3.64397        -0.013594      0.007160      0.003417
O	      4.26552      4.13311      1.07090        -0.017455      0.013369      0.003777
O	      1.36845      4.16828      1.32447         0.023342      0.000338      0.008960
O	      3.21044      3.16751      5.96003        -0.002880     -0.005102      0.015255
O	      6.13447      3.40322      6.11753        -0.008382     -0.008177     -0.011776
O	      4.51909      2.56264      3.63612        -0.009077     -0.001482     -0.001751
O	      1.66912      2.31030      3.78584         0.007651      0.008598      0.002485
O	      5.78010      1.85496      1.16981        -0.013464     -0.006506      0.005680
O	      3.10339      1.75448      1.15275         0.009695     -0.014288     -0.005927
