# total energy = -223.95427298 eV
 
CRYSTAL
PRIMVEC
5.968218 0.017501 -0.013267 
1.158488 7.680563 0.002027 
1.724267 2.475294 7.249624 
PRIMCOORD
36 1
Li	      1.25575      7.60889      0.09646         0.005457     -0.002112      0.009575
Li	      2.82490      0.12142     -0.02640        -0.003769      0.011087      0.000786
Li	      5.67678      8.37718      2.40081         0.000663     -0.008154     -0.006188
Li	      2.90977      8.33501      2.51569         0.005818     -0.007780      0.003812
Li	      5.74797      5.20222      0.10061         0.001706     -0.007619      0.004008
Li	      5.80346      6.86307      4.74659         0.000306      0.005207      0.001874
Li	      4.36455      6.14547      2.45583        -0.000491      0.004883     -0.000919
Li	      3.13449      4.88374      7.18285        -0.003203      0.004628     -0.004442
Li	      1.57299      4.18068      4.86375         0.002610     -0.003743     -0.005961
Sc	      2.90424      3.32932      2.41762        -0.001272     -0.005585     -0.003625
Mn	      7.30110      9.27281      4.83649         0.008011      0.004665     -0.004845
Mn	      7.25613      6.03452      2.41584        -0.002542      0.000924     -0.010716
V	      6.24834      4.99684      7.20091        -0.000831     -0.019058      0.016841
Cr	      4.47190      4.29681      4.83245         0.016279     -0.009153      0.003575
Fe	      2.75649      5.18548     -0.07912        -0.003237      0.009425      0.004354
Co	      4.30713      9.32832      4.84449         0.009013     -0.004937     -0.005253
Cu	      5.93022      3.41240      2.37332        -0.007134     -0.001050      0.007495
Ni	      2.90813      6.75926      4.81920         0.017333     -0.008999      0.015675
O	      5.92617      6.72801      1.36461         0.002699      0.009042      0.007111
O	      5.74320      8.58560      5.98944         0.003405      0.003586     -0.004404
O	      2.99370      8.45361      6.03384        -0.002108     -0.002572     -0.001523
O	      7.33937      7.51985      3.59745        -0.020330      0.001576     -0.003451
O	      4.32723      7.75948      3.74877         0.006411      0.007831      0.000607
O	      2.68017      6.69902      1.26750        -0.004278     -0.006139     -0.002317
O	      7.36900      5.87348      6.11168         0.011263      0.012918     -0.004513
O	      4.48212      5.89691      6.04443        -0.011278      0.003132     -0.009031
O	      2.97086      5.07319      3.61907         0.009238      0.005959      0.011617
O	      5.97029      5.01439      3.54403        -0.001546      0.003894      0.000861
O	      4.18602      4.19400      0.93768        -0.001796      0.008424     -0.010989
O	      1.38954      4.33523      1.30978        -0.006480     -0.001099     -0.006028
O	      3.15055      3.30287      5.90814        -0.015565     -0.003166      0.003164
O	      5.97291      3.57321      6.02476         0.007107     -0.001867      0.002252
O	      4.52756      2.62739      3.66122        -0.000029      0.004162      0.007975
O	      1.68959      2.36916      3.74077         0.002538     -0.007072     -0.000297
O	      5.77225      1.87333      1.06409        -0.018734     -0.005310     -0.014077
O	      3.06126      1.78537      1.08733        -0.005237      0.004074     -0.003001
