# total energy = -217.19126025 eV
 
CRYSTAL
PRIMVEC
5.887217 0.007657 0.022532 
1.381529 7.706451 0.116851 
1.638960 2.646850 7.296918 
PRIMCOORD
36 1
Li	     -0.00520     -0.00177     -0.00174        -0.000197      0.005600     -0.001062
Li	      4.25597      7.66377      0.07206        -0.002172     -0.005656     -0.003928
Li	      7.36137      9.48498      5.14225         0.002829      0.003808      0.008201
Li	      4.55856      7.70414      7.33436        -0.005057     -0.004792     -0.003691
Li	      5.97885      6.95979      5.10299        -0.006396      0.000008      0.001843
Li	      4.35417      6.01590      2.38840        -0.002150     -0.012520     -0.005385
Li	      4.37297      2.63912     -0.01325        -0.001624      0.005762      0.002561
Li	      1.41545      2.59062      0.02979        -0.003122      0.004736     -0.003774
Li	      5.95687      3.52187      2.36920         0.000384     -0.000277     -0.001633
Sc	      4.54825      4.41564      4.92725        -0.001040      0.004926      0.003443
Mn	      1.48160      6.01715      2.47456         0.011398     -0.013335      0.003521
V	      4.50979      0.93599      2.39973        -0.003127      0.006526      0.011540
Cr	      4.41502      9.40048      5.07722        -0.001650     -0.005637     -0.002740
Fe	      1.53226      4.29566      4.94520        -0.007764     -0.003465     -0.000880
Co	      7.37573      7.77803      7.32278         0.015482      0.000800      0.000155
Cu	      1.52398      0.90084      2.44677         0.005250      0.006429      0.002128
Cu	      3.05855      6.91569      5.06233        -0.001831      0.002563     -0.005204
Ni	      2.99971      3.46742      2.34421        -0.014602     -0.005639     -0.009862
O	      5.90055      8.65652      6.20285        -0.004126      0.008801     -0.001441
O	      2.88330      8.63266      6.25696         0.005684      0.000141      0.000834
O	      7.31224      7.66150      3.63183         0.006140      0.001938     -0.002898
O	      4.35849      7.83332      3.81686         0.001680      0.014333      0.003810
O	      2.79237      6.91259      1.46870         0.000216      0.008195      0.000210
O	      5.91790      6.95006      1.56573        -0.001407     -0.003707     -0.009095
O	      7.54839      6.04042      6.10185        -0.004935     -0.002389      0.003226
O	      4.49085      5.99684      6.10912        -0.010996      0.002852     -0.003351
O	      2.89046      5.13405      3.57334         0.000122      0.001843     -0.008154
O	      6.05935      5.14811      3.68484         0.000993     -0.003622     -0.000895
O	      4.51553      4.33825      1.18218        -0.000712     -0.000748     -0.001379
O	      1.47446      4.49048      1.33727        -0.002916      0.003591      0.008088
O	      3.02641      3.43603      5.98231         0.005020     -0.008073      0.009183
O	      6.00433      3.56987      6.04924         0.000160     -0.005142      0.002753
O	      4.42954      2.44085      3.63623         0.002126     -0.000993      0.009696
O	      1.64983      2.57582      3.72382         0.009862     -0.002516     -0.006211
O	      5.88056      1.69515      1.41681         0.008131     -0.005356     -0.000788
O	      3.04048      1.62106      1.35860         0.000346      0.001015      0.001180
