# total energy = -224.20312612 eV
 
CRYSTAL
PRIMVEC
5.949853 0.001587 0.020014 
1.134038 7.623573 0.015973 
1.751917 2.460710 7.248536 
PRIMCOORD
36 1
Li	      0.04580      0.03720      0.06494        -0.006040     -0.009420     -0.005940
Li	      2.87879      0.09450     -0.02272        -0.024246      0.009542     -0.004498
Li	      5.71946      8.37535      2.38159        -0.004323     -0.008492      0.006939
Li	      2.79134      8.32868      2.46937         0.013412     -0.004087      0.008104
Li	      5.71318      5.15486      0.10716         0.008491      0.005066     -0.000458
Li	      5.81539      6.80702      4.79357        -0.003133      0.004451     -0.002189
Li	      4.33067      6.03111      2.42482         0.008524      0.010410      0.006635
Li	      3.13494      4.81417      7.21756        -0.012236      0.023423     -0.010737
Li	      1.59986      4.09683      4.90920        -0.007728     -0.014315     -0.002398
Sc	      2.91693      3.31725      2.47036         0.018999     -0.016787      0.005147
Mn	      2.86302      6.71218      4.84485         0.013002      0.012563      0.016666
Mn	      7.16327      6.00632      2.41995        -0.008947     -0.000949     -0.012450
V	      6.19527      5.00188      7.20153        -0.004446     -0.012648      0.005604
Cr	      4.54842      4.20379      4.88984         0.000125     -0.017725     -0.008529
Fe	      2.78114      5.16059     -0.01705        -0.012320     -0.007004     -0.002537
Co	      4.28038      9.23816      4.87522        -0.007934      0.002359     -0.000785
Cu	      5.92878      3.33130      2.37926        -0.010015     -0.019895      0.016684
Ni	      7.25777      9.24846      4.88980        -0.006311      0.015717     -0.000529
O	      5.85534      6.68885      1.36415         0.015030      0.001484      0.020012
O	      5.72301      8.49871      5.97759        -0.009456      0.001320      0.004167
O	      2.94967      8.33273      5.99816        -0.004165     -0.012622      0.000448
O	      7.23419      7.48406      3.59216         0.016434     -0.015752      0.002450
O	      4.20039      7.60011      3.81029         0.002158     -0.002723     -0.000308
O	      2.62507      6.68036      1.27441         0.000072     -0.000458      0.012701
O	      7.44670      5.86821      6.09474         0.013657      0.006348     -0.011936
O	      4.56846      5.80757      6.11233         0.006318      0.005133     -0.001685
O	      3.00838      5.06677      3.72467        -0.008880      0.025229      0.000599
O	      5.96154      4.94985      3.55219        -0.001261      0.005891      0.014217
O	      4.19734      4.23821      1.04512        -0.002606     -0.008963     -0.005195
O	      1.40401      4.33904      1.34703         0.019919     -0.006517     -0.009062
O	      3.18565      3.24002      5.93647        -0.007993      0.019184     -0.012093
O	      6.03104      3.42709      6.02044        -0.000495      0.003838     -0.001287
O	      4.52887      2.54213      3.70991        -0.000966      0.000635     -0.012123
O	      1.69610      2.34129      3.76593         0.012046     -0.000318     -0.006871
O	      5.80030      1.86256      1.12303        -0.004871      0.005126      0.002606
O	      3.07128      1.78053      1.13101         0.000184      0.000958     -0.011367
