# total energy = -223.22023046 eV
 
CRYSTAL
PRIMVEC
5.970420 -0.026019 0.025911 
1.102646 7.661374 0.028497 
1.753792 2.477421 7.243796 
PRIMCOORD
36 1
Li	      1.20487      7.61227      0.14090         0.000628     -0.009558      0.008610
Li	      4.09885      7.63153      0.18171        -0.000225      0.001481      0.001643
Li	      5.66260      8.33280      2.39724        -0.002633      0.003727     -0.004827
Li	      2.75331      8.29911      2.50133        -0.004637     -0.004248      0.006639
Li	      5.79182      5.16337      0.19837         0.007034     -0.002101      0.004192
Li	      5.81581      6.77336      4.76723        -0.009470      0.008895     -0.009301
Li	      4.35629      6.09480      2.44389        -0.004880      0.004245     -0.003582
Li	      3.17484      4.90649      7.23043         0.004472     -0.012962      0.000828
Li	      1.57048      4.20127      4.85508         0.005499     -0.005528     -0.002546
Sc	      2.88142      3.36206      2.43958        -0.006323     -0.013076      0.005868
Mn	      7.20483      9.28059      4.90995         0.001728     -0.003317     -0.006929
Mn	      2.83459      6.74173      4.82893         0.006469      0.002435      0.004151
V	      6.24083      4.92265      7.20944        -0.007700     -0.007598     -0.001149
Cr	      4.51211      4.24701      4.87533         0.020600     -0.004261     -0.009906
Fe	      2.74592      5.16318      0.04445        -0.008483      0.001511     -0.002555
Co	      4.24113      9.30851      4.88969         0.002318     -0.020086     -0.000818
Cu	      7.10302      6.05489      2.41208        -0.001814     -0.000261      0.004033
Ni	      5.91705      3.40899      2.38986        -0.005616      0.001853     -0.008671
O	      5.71085      6.77700      1.24599         0.001938     -0.000192      0.004407
O	      5.69428      8.56476      5.97857        -0.003846     -0.004301      0.005779
O	      2.99218      8.33651      6.03726        -0.002789     -0.003067      0.007884
O	      7.23007      7.73010      3.79086        -0.003094     -0.002530     -0.002584
O	      4.16620      7.67361      3.81633        -0.000079     -0.000087      0.002102
O	      2.64432      6.68332      1.26987         0.004780     -0.004514     -0.001104
O	      7.45424      5.82224      6.09036         0.005002      0.008237     -0.001745
O	      4.64957      5.81487      6.13092         0.002089      0.012548      0.003348
O	      3.05136      5.08124      3.76510         0.001443      0.001401      0.001292
O	      5.92070      5.00618      3.59131        -0.011323      0.000712      0.011965
O	      4.30600      4.12441      1.05756         0.002791      0.002129     -0.001166
O	      1.45137      4.12331      1.18603         0.004140     -0.006087     -0.003751
O	      3.14823      3.24476      5.92023        -0.004437      0.015071      0.005603
O	      6.03192      3.45903      6.02729        -0.002368      0.013498     -0.011235
O	      4.46267      2.59434      3.68390         0.002898      0.011065     -0.006334
O	      1.55935      2.43513      3.71211         0.007864     -0.002052     -0.004347
O	      5.75858      1.81260      1.05412         0.003686      0.004177     -0.000075
O	      3.11071      1.76165      1.12313        -0.005665      0.012842      0.004282
