# total energy = -222.96290817 eV
 
CRYSTAL
PRIMVEC
5.990111 0.005646 0.020801 
1.147372 7.681683 0.020444 
1.766971 2.484018 7.238887 
PRIMCOORD
36 1
Li	      1.24958      7.60973      0.14667        -0.001530      0.009987     -0.002074
Li	      4.12324      7.69514      0.15312        -0.011501      0.003402     -0.008730
Li	      5.68228      8.36706      2.38858        -0.017951      0.015594      0.009825
Li	      2.87751      8.30737      2.56490         0.003817     -0.004966      0.009847
Li	      5.77782      5.23743      0.14468        -0.005139      0.009149     -0.010370
Li	      5.84758      6.90532      4.76547        -0.004378     -0.002899     -0.002345
Li	      4.35361      6.16891      2.44591        -0.000589     -0.003074      0.011960
Li	      3.18557      4.88339      7.22178        -0.000639     -0.003229     -0.001667
Li	      1.64870      4.19761      4.86756         0.000290     -0.006918      0.002526
Sc	      2.90238      3.36327      2.43055        -0.008457      0.006354      0.012237
Mn	      7.34466      9.27969      4.92849        -0.001128     -0.009950      0.003498
Mn	      5.93803      3.43823      2.34999         0.006220     -0.007063      0.001100
V	      6.22170      4.97049      7.13944         0.008347      0.004044     -0.021716
Cr	      4.51889      4.27158      4.84541        -0.018380      0.011410      0.017522
Fe	      2.75143      5.21638      0.01420         0.015354      0.005265     -0.002338
Co	      4.33604      9.33133      4.87319        -0.008975      0.000099     -0.004309
Cu	      7.20046      6.13312      2.42966         0.000785      0.002114      0.007962
Ni	      2.91673      6.76405      4.83079         0.000302     -0.009399     -0.016239
O	      5.79322      6.80142      1.26917        -0.003353      0.001331     -0.007493
O	      5.79687      8.59229      5.98907        -0.004932      0.005841      0.006929
O	      3.07083      8.43236      6.06751         0.003031     -0.000460      0.000609
O	      7.37277      7.72096      3.82460         0.009041     -0.004534      0.005427
O	      4.33726      7.78037      3.78055        -0.006123     -0.007951      0.011057
O	      2.70264      6.70989      1.26914        -0.009716     -0.003128      0.001098
O	      7.41507      5.82793      6.11223         0.005262      0.010747     -0.001596
O	      4.63632      5.85204      6.09023        -0.000673     -0.008420     -0.004261
O	      3.07027      5.04314      3.69761         0.008711     -0.008656     -0.004902
O	      5.96825      4.95758      3.51314         0.005288     -0.003463     -0.011442
O	      4.25362      4.17268      1.01398         0.006947      0.010370     -0.004443
O	      1.39145      4.10998      1.20223        -0.006871     -0.018121      0.002105
O	      3.18941      3.27772      5.91330         0.012501     -0.002276      0.001828
O	      6.06119      3.48031      6.01354        -0.000168      0.010556      0.007186
O	      4.56855      2.64619      3.61749         0.016134      0.004379     -0.007383
O	      1.62034      2.41017      3.73118         0.001386     -0.001040     -0.011197
O	      5.74708      1.90707      1.11163         0.007617      0.015494      0.010369
O	      3.08888      1.78023      1.09746        -0.000528     -0.020590     -0.000585
