# total energy = -218.14921955 eV
 
CRYSTAL
PRIMVEC
5.929273 0.072598 -0.058706 
1.221320 7.659447 -0.019792 
1.680337 2.468653 7.222725 
PRIMCOORD
36 1
Li	      1.22927      7.56306      0.05305        -0.003270      0.008447      0.001838
Li	      2.87140      0.11513     -0.03715        -0.012897      0.005448      0.004031
Li	      5.71548      8.41420      2.37617         0.002386     -0.003198     -0.000982
Li	      2.88154      8.34747      2.47302        -0.002107      0.000363      0.001289
Li	      5.70234      5.27168     -0.00301         0.006578     -0.001673      0.000881
Li	      5.83365      6.89932      4.72294        -0.006277      0.004733     -0.003600
Li	      4.35544      6.15635      2.41133         0.006649     -0.001673     -0.005183
Li	      3.12201      4.85539      7.12791        -0.001498      0.011600     -0.001029
Li	      1.56510      4.15793      4.82350        -0.002356     -0.005378      0.003220
Sc	      2.92957      3.32371      2.38917         0.007723      0.009412      0.005186
Mn	      7.23458      6.09153      2.35068         0.005937     -0.013929     -0.001187
V	      6.21309      5.01992      7.13502         0.008289     -0.003954     -0.001434
Cr	      4.49103      4.30183      4.77084        -0.015255     -0.008376     -0.011733
Fe	      2.73727      5.20392     -0.12295        -0.001540      0.010799      0.008752
Co	      3.09813      1.65558      4.80616         0.015211      0.010311      0.005659
Cu	      5.95249      3.46964      2.32965         0.008411     -0.002136     -0.007598
Ni	      7.29885      9.31259      4.76516         0.012252      0.003216     -0.006702
Ni	      2.89389      6.74814      4.79868         0.018465      0.001331      0.000131
O	      5.89146      6.77223      1.32457        -0.009805      0.006637      0.015401
O	      5.74299      8.58281      5.92945        -0.005199      0.004201     -0.000550
O	      2.86056      8.38795      6.04182        -0.004737      0.002889      0.005716
O	      7.31977      7.57032      3.52631        -0.002214     -0.019253     -0.001709
O	      4.31946      7.77426      3.71560         0.004099     -0.015099     -0.000032
O	      2.67624      6.70032      1.23863        -0.005918     -0.004430      0.001887
O	      7.31753      5.88110      6.02553         0.002000      0.002064      0.009546
O	      4.46387      5.88590      5.99713        -0.002202      0.002283     -0.001106
O	      2.98948      5.07635      3.57913        -0.001147     -0.009076     -0.002154
O	      5.97005      5.06825      3.49441         0.010094      0.008273     -0.000121
O	      4.18324      4.20810      0.89744         0.000286     -0.021365     -0.009445
O	      1.40802      4.34851      1.30387        -0.006488      0.003424      0.010604
O	      3.16062      3.29286      5.83250        -0.004983      0.010119     -0.009543
O	      5.96972      3.55954      5.97335        -0.004795     -0.005137     -0.004559
O	      4.62205      2.66085      3.56151         0.004383      0.001144     -0.011420
O	      1.65324      2.38525      3.70833         0.000525     -0.003199      0.006110
O	      5.78876      1.90964      1.00781        -0.016610      0.010201     -0.000789
O	      3.07091      1.79545      1.05537        -0.003993      0.000980      0.000625
