# total energy = -218.05699901 eV
 
CRYSTAL
PRIMVEC
5.836233 0.073610 -0.095221 
1.204703 7.747592 0.135413 
1.609383 2.650836 7.222518 
PRIMCOORD
36 1
Li	      1.25871      7.70362      0.15787        -0.004659     -0.004067     -0.010310
Li	      2.86511      0.09884      0.01325        -0.007194     -0.001605      0.000687
Li	      5.61546      8.49189      2.46883        -0.005793      0.005255     -0.001513
Li	      2.77902      8.50693      2.57002         0.000596      0.000580     -0.005802
Li	      5.65914      5.33024      0.07220        -0.002252     -0.003823     -0.003094
Li	      5.72311      7.06044      4.75424        -0.001345      0.001671     -0.005552
Li	      4.29113      6.27009      2.50188        -0.000505     -0.004882     -0.002714
Li	      3.02685      5.07417      7.17772         0.000438      0.001804      0.002755
Li	      1.47457      4.32951      4.88406         0.006610      0.003939      0.005375
Sc	      2.83540      3.40192      2.43936         0.007363     -0.004894     -0.004711
Mn	      7.11051      6.17637      2.38865        -0.009140      0.009473     -0.000436
V	      6.08545      5.22082      7.18066         0.007985     -0.019293      0.006153
Cr	      4.36044      4.46659      4.84596        -0.003261      0.008586      0.017387
Fe	      2.76516      5.25514     -0.00824        -0.008886     -0.005678      0.000129
Co	      3.01429      1.79543      4.79223         0.004814      0.005589     -0.005859
Cu	      7.13553      9.50488      4.89793         0.001742     -0.004860     -0.005427
Ni	      2.83085      6.93918      4.85153         0.002803      0.005101      0.000796
Ni	      5.79724      3.54747      2.36328         0.004842      0.005839      0.000538
O	      5.78060      6.87438      1.33605         0.000645     -0.004210      0.003817
O	      5.67597      8.80417      6.02848        -0.003308     -0.007590      0.005941
O	      2.87946      8.67526      6.04571        -0.003784     -0.000822      0.008491
O	      7.17839      7.64993      3.51818         0.002878      0.003031     -0.001113
O	      4.22943      7.99070      3.81388        -0.004200     -0.002102      0.003152
O	      2.67174      6.76764      1.29997        -0.008899     -0.007068     -0.002982
O	      7.19507      6.11770      6.09498        -0.001326      0.002502      0.000248
O	      4.38098      6.10855      6.07732         0.005456     -0.005546     -0.001535
O	      2.87739      5.20050      3.63914         0.013914     -0.003039     -0.001972
O	      5.80761      5.20464      3.53308         0.004585     -0.001937     -0.000813
O	      4.22112      4.23936      1.06249         0.002578     -0.002290     -0.001779
O	      1.39228      4.42812      1.33155        -0.003428      0.005673     -0.002367
O	      3.03267      3.44688      5.88778         0.000946      0.000252     -0.003943
O	      5.83305      3.80759      6.06429         0.002550      0.006860      0.006680
O	      4.42915      2.75335      3.73121         0.005834      0.002335      0.000957
O	      1.44743      2.52984      3.69568        -0.000579      0.004952     -0.000319
O	      5.71808      1.91799      1.05887        -0.007672      0.004000     -0.002902
O	      3.00455      1.86650      1.11920        -0.000350      0.006265      0.002039
