# total energy = -217.73366869 eV
 
CRYSTAL
PRIMVEC
5.910070 0.052445 -0.047249 
1.191979 7.632900 0.024539 
1.680671 2.495260 7.206326 
PRIMCOORD
36 1
Li	      1.25906      7.60344      0.07663        -0.010813     -0.009586     -0.003639
Li	      2.87639      0.08697      0.01191        -0.018112     -0.000799     -0.008068
Li	      5.65464      8.37443      2.33289         0.008915      0.013528      0.006920
Li	      2.80774      8.33947      2.47922        -0.009031      0.002523      0.002649
Li	      5.73214      5.19942      0.03965         0.003273      0.007089     -0.000152
Li	      5.77668      6.86906      4.69911         0.001730     -0.000880     -0.002104
Li	      4.32962      6.11701      2.45097        -0.004017     -0.004786     -0.002252
Li	      3.11462      4.86554      7.15767        -0.002118      0.009079      0.008915
Li	      1.55473      4.18448      4.81091         0.002054      0.000027      0.008181
Sc	      2.90141      3.31181      2.40608        -0.010461     -0.000521     -0.008694
Mn	      7.16049      6.08407      2.36909        -0.013094     -0.007952      0.002270
V	      6.20392      5.00596      7.09797         0.001464     -0.006753     -0.007808
Cr	      4.45225      4.31052      4.82176         0.019792     -0.006742     -0.016475
Fe	      2.78947      5.16383     -0.04665        -0.011321     -0.001159     -0.005775
Co	      4.26772      9.31501      4.83021         0.010712      0.004438      0.010320
Cu	      2.84442      6.77081      4.79931        -0.008865      0.000282      0.005392
Ni	      7.21952      9.26892      4.78172         0.001870     -0.013074     -0.013728
Ni	      5.89268      3.42950      2.35683         0.005331      0.004731      0.011860
O	      5.83837      6.72378      1.28382         0.009565     -0.008683      0.012658
O	      5.70659      8.56321      5.94294        -0.019019     -0.002624     -0.000460
O	      2.94990      8.42775      5.96127         0.005991      0.002752     -0.010061
O	      7.14959      7.60313      3.45708        -0.006639      0.019968     -0.001284
O	      4.21971      7.72881      3.76626         0.007242      0.005218     -0.006241
O	      2.66528      6.68022      1.25875         0.006471      0.001611      0.013156
O	      7.36591      5.90101      6.04978         0.015216      0.001731     -0.007167
O	      4.61011      5.83877      6.14404        -0.002998      0.001188     -0.004770
O	      2.95957      5.09220      3.63739         0.000712      0.012434     -0.001864
O	      5.90506      5.08447      3.52574         0.006860     -0.015718     -0.008692
O	      4.29633      4.16255      1.04477        -0.000526     -0.000855     -0.004969
O	      1.42489      4.35354      1.30530         0.013555     -0.005119      0.004899
O	      3.11520      3.30904      5.87024        -0.004427     -0.001288     -0.004894
O	      5.96929      3.54355      5.97836         0.012328     -0.001556      0.015313
O	      4.47066      2.62114      3.67891         0.005470     -0.002680      0.015384
O	      1.52737      2.43820      3.64422        -0.000076     -0.002405     -0.008165
O	      5.76098      1.86135      1.03307        -0.005159     -0.002971     -0.005691
O	      3.06487      1.76225      1.11425        -0.011875      0.009549      0.015038
