# total energy = -103.51802664 eV
 
CRYSTAL
PRIMVEC
0.000066 2.095620 2.095182 
8.346621 -4.232349 4.231701 
2.063828 4.199335 -2.103198 
PRIMCOORD
16 1
Li	      0.21524      2.03948      2.14839         0.029129     -0.008848      0.008028
Li	      2.12285      2.07067      0.02278        -0.003861      0.002940     -0.001639
Li	      4.11277      4.18931     -0.00064        -0.022469      0.003296     -0.003755
Li	      6.19676      2.04830      0.04527        -0.028037      0.011257     -0.013245
Ti	      4.02846      2.09258      2.09149        -0.426114      0.065701     -0.056251
Ti	      8.48408     -0.02670      4.21700         0.577288     -0.085951      0.083261
Ni	      6.18163     -0.00867      2.10137        -0.012104     -0.048039      0.049923
Ni	      6.17974     -2.08021      4.17268         0.035368     -0.054939      0.055319
O	      6.20590      2.03707      2.15111        -0.094038      0.108487     -0.109847
O	      6.33679     -0.03390      4.22185         0.012256      0.038109     -0.038449
O	      8.30681     -0.06660      2.15916         0.065943     -0.088476      0.087494
O	      8.31086     -1.99528      4.08887         0.061600      0.116612     -0.115558
O	      1.95071      4.22685     -0.03797        -0.497801     -0.001409     -0.001707
O	      2.18954      2.07919      2.10940         0.372597     -0.001333     -0.004686
O	      4.15492      1.97623      0.11687         0.018613     -0.107069      0.109618
O	      4.15211      0.07196      2.02151        -0.088368      0.049663     -0.048504
