# total energy = -223.85200486 eV
 
CRYSTAL
PRIMVEC
5.960247 -0.037175 0.033463 
1.086297 7.684331 0.071312 
1.755550 2.521173 7.264197 
PRIMCOORD
36 1
Li	      1.18189      7.61390      0.12362        -0.002010      0.005716     -0.006253
Li	      2.88422      0.03951      0.01732        -0.008688      0.005478      0.012051
Li	      5.65739      8.36246      2.46944        -0.009464     -0.006611      0.008729
Li	      2.76747      8.36920      2.54673         0.006626     -0.003142      0.001155
Li	      5.76613      5.17473      0.17274         0.006839     -0.008384      0.002236
Li	      5.79174      6.86263      4.83138        -0.000597      0.000986     -0.000419
Li	      4.31551      6.11282      2.47438         0.009862      0.004988      0.001974
Li	      3.16326      4.95759      7.28013        -0.007453      0.009862     -0.016053
Li	      1.55722      4.17770      4.91313        -0.006768     -0.001222      0.004602
Sc	      2.86041      3.34188      2.47423         0.000704     -0.000714      0.009507
Mn	      2.83023      6.82551      4.89795         0.000454     -0.008920      0.008406
Mn	      7.15366      6.02084      2.47812        -0.019002     -0.004237      0.003625
V	      6.24451      4.98267      7.26791        -0.018674     -0.004695     -0.022392
Cr	      4.48123      4.29890      4.90754         0.003265     -0.002966     -0.005579
Fe	      2.78870      5.15556      0.03632         0.006429      0.000857      0.001638
Co	      4.23214      9.35938      4.95232         0.006871     -0.000163      0.008105
Cu	      7.17667      9.22956      4.89759        -0.010020      0.007013      0.002846
Ni	      5.89738      3.36577      2.46497         0.014354     -0.004437      0.000544
O	      5.81226      6.72690      1.38093        -0.007140      0.015420     -0.009623
O	      5.70560      8.61797      6.01290         0.003099     -0.003278      0.011855
O	      3.04425      8.36934      6.12689        -0.000183     -0.009237      0.002531
O	      7.22102      7.58808      3.69698         0.013598      0.001148      0.001275
O	      4.16684      7.72580      3.86654         0.001888     -0.010733      0.006544
O	      2.64897      6.69685      1.30850         0.006600      0.011227      0.000759
O	      7.44983      5.89652      6.16729         0.001577      0.005667      0.002890
O	      4.60363      5.87741      6.17367        -0.001457      0.020864     -0.003039
O	      2.96746      5.15366      3.76941         0.004106      0.005821     -0.001388
O	      5.91183      5.02264      3.62419         0.006229     -0.006283      0.000235
O	      4.28033      4.14764      1.09238         0.008310      0.008513     -0.000043
O	      1.41272      4.25070      1.30225        -0.000532     -0.011355     -0.017042
O	      3.14523      3.28943      5.96199        -0.010840     -0.004305     -0.002293
O	      5.98741      3.59965      6.10946         0.004652     -0.004246      0.006849
O	      4.40099      2.67335      3.70782         0.000510     -0.003659     -0.013236
O	      1.54638      2.42917      3.73598        -0.007365      0.000145     -0.012578
O	      5.75004      1.81112      1.09921         0.001575     -0.010205      0.020081
O	      3.07007      1.76916      1.16095         0.002647      0.005089     -0.008499
