# total energy = -216.92614768 eV
 
CRYSTAL
PRIMVEC
5.931282 0.043192 -0.031750 
1.184265 7.650360 -0.005593 
1.701480 2.467759 7.204993 
PRIMCOORD
36 1
Li	      1.27312      7.57514      0.09135        -0.002166     -0.004127      0.001003
Li	      2.92788      0.06533      0.06260        -0.015587      0.008109     -0.010491
Li	      5.65378      8.34323      2.35114         0.009803      0.007888      0.001864
Li	      2.85623      8.28161      2.46229         0.004593      0.000644     -0.001071
Li	      5.76386      5.21842      0.08450        -0.001246      0.003153      0.000004
Li	      5.79849      6.80285      4.64749         0.006047      0.000768      0.010016
Li	      4.37867      6.12628      2.42887         0.004278     -0.002005     -0.003584
Li	      3.11801      4.84105      7.12407        -0.004523      0.003981      0.006138
Li	      1.53963      4.21720      4.80807        -0.003012      0.000039     -0.006961
Sc	      2.87330      3.34773      2.40639        -0.003897     -0.011119     -0.002838
Mn	      7.25651      9.25735      4.77176        -0.006049      0.009647      0.000801
V	      6.20974      4.95178      7.13028        -0.018784     -0.010873      0.015567
Cr	      4.46038      4.28391      4.80412         0.002462     -0.009079     -0.003408
Fe	      2.79168      5.18808     -0.05100        -0.012051      0.002352      0.002425
Co	      4.30524      9.31281      4.80111        -0.001404      0.010147      0.003023
Cu	      7.20678      6.05618      2.36426         0.006862      0.000644     -0.005439
Ni	      2.90416      6.74103      4.78050         0.003494      0.001832     -0.002233
Ni	      5.87789      3.46187      2.34067        -0.000459     -0.001318     -0.000684
O	      5.79086      6.79043      1.21872         0.005782     -0.006566      0.007978
O	      5.80869      8.56227      5.89639         0.002028      0.004219      0.000735
O	      3.02894      8.43277      5.97755        -0.001514     -0.001873     -0.003756
O	      7.30469      7.62709      3.62845        -0.007957      0.004854     -0.003042
O	      4.29542      7.77357      3.70748         0.004916     -0.011072     -0.001424
O	      2.74334      6.69456      1.21303         0.003021     -0.004443     -0.005164
O	      7.32631      5.85231      6.06087         0.013118      0.008012     -0.015427
O	      4.51066      5.88473      6.04146         0.007142      0.000352      0.004591
O	      2.99623      5.03306      3.64630         0.000716      0.007024      0.002005
O	      5.88645      5.06402      3.53552        -0.007081     -0.007898      0.005701
O	      4.27417      4.14686      1.02213         0.007266      0.004885      0.002179
O	      1.41003      4.33299      1.25254         0.003691     -0.001351      0.002520
O	      3.12226      3.27578      5.86786         0.000152      0.004221      0.004337
O	      5.97482      3.48762      5.95625        -0.001437     -0.007524     -0.007305
O	      4.46347      2.61588      3.63638         0.002703      0.000321      0.003530
O	      1.47977      2.41449      3.65565         0.001609      0.000781      0.006109
O	      5.75126      1.85129      1.02831        -0.000442      0.001452     -0.010064
O	      3.04519      1.80340      1.06406        -0.002075     -0.006078      0.002364
