# total energy = -217.01997779 eV
 
CRYSTAL
PRIMVEC
5.995693 0.010738 0.027646 
1.155320 7.610506 -0.073883 
1.781356 2.371767 7.227680 
PRIMCOORD
36 1
Li	      1.26561      7.51988      0.11077         0.012201      0.002231     -0.023953
Li	      4.28675      7.54821      0.17856         0.001410      0.001487     -0.008988
Li	      5.74591      8.27263      2.33244        -0.010375      0.017799     -0.004773
Li	      2.90733      8.16357      2.45194        -0.008934      0.010776     -0.007735
Li	      5.81359      5.13800      0.17807         0.007343     -0.015228     -0.012622
Li	      5.89492      6.71391      4.71953        -0.007344      0.002991     -0.010233
Li	      4.42079      6.01923      2.33349        -0.026229     -0.008051      0.004704
Li	      3.20583      4.76945      7.15592         0.001184      0.002059      0.014630
Li	      1.57367      4.13706      4.78134         0.008852     -0.003275      0.009828
Sc	      2.88252      3.31459      2.38103         0.005609     -0.002030     -0.006640
Mn	      7.34828      9.16199      4.79949         0.002980     -0.010721     -0.008250
V	      6.27033      4.84327      7.13908        -0.001176      0.003668      0.016732
Cr	      4.53130      4.18148      4.77511        -0.001710     -0.011923      0.007760
Fe	      2.75401      5.17515     -0.04260         0.008004     -0.013796     -0.008647
Co	      4.35241      9.19452      4.77095         0.002099      0.004008      0.006936
Cu	      5.93229      3.38281      2.32264         0.010635     -0.001371      0.010533
Ni	      2.93314      6.64042      4.78413         0.012951      0.000971     -0.003696
Ni	      7.25136      5.99624      2.38113        -0.000050      0.003579      0.000160
O	      5.81100      6.74012      1.20071         0.006499     -0.007679      0.000008
O	      5.80315      8.49168      5.83404        -0.021147     -0.005407     -0.000278
O	      3.10368      8.33793      5.96062        -0.001487      0.001899     -0.015240
O	      7.39792      7.57959      3.72202        -0.010155     -0.000448     -0.015021
O	      4.35601      7.67747      3.72231        -0.001070      0.000248     -0.000160
O	      2.77870      6.66254      1.17298         0.000005     -0.002019     -0.018082
O	      7.39978      5.74414      6.06058         0.010239     -0.001481      0.007678
O	      4.57604      5.76507      6.00485         0.005010      0.006391      0.002720
O	      3.05113      4.95946      3.63241         0.000450      0.008105      0.012391
O	      5.95728      4.87223      3.53806         0.003403      0.014273      0.014731
O	      4.20060      4.14974      0.93652         0.007181     -0.008715      0.002882
O	      1.39783      4.20017      1.20013        -0.000906      0.004705     -0.001918
O	      3.16951      3.17533      5.83649        -0.000264     -0.001157      0.000128
O	      6.05184      3.37556      5.94535         0.001439     -0.001858      0.019343
O	      4.51125      2.50783      3.61825        -0.000038     -0.005101      0.002032
O	      1.70020      2.27522      3.78705        -0.000825      0.001830      0.006217
O	      5.76051      1.87004      1.03758        -0.008783      0.006998     -0.012152
O	      3.07291      1.77203      1.03983        -0.007000      0.006245      0.018975
