# total energy = -217.16526737 eV
 
CRYSTAL
PRIMVEC
5.953870 -0.020667 0.013083 
1.106061 7.680929 0.038665 
1.735312 2.497205 7.229449 
PRIMCOORD
36 1
Li	      1.23127      7.60193      0.14462        -0.001396     -0.003544      0.013594
Li	      4.20001      7.61251      0.16740         0.012491     -0.000480      0.009698
Li	      5.55605      8.36985      2.31192        -0.000924      0.004083     -0.003169
Li	      2.77845      8.29414      2.46318        -0.001287     -0.003886      0.001482
Li	      5.78029      5.24384      0.17591         0.007923     -0.000232      0.017274
Li	      5.82657      6.75383      4.76661         0.001932      0.008268     -0.004742
Li	      4.39459      6.10298      2.40293         0.007116      0.000943     -0.007192
Li	      3.16918      4.93411      7.21974         0.003404     -0.002902     -0.006724
Li	      1.48160      4.19648      4.87313        -0.000024      0.003820     -0.002986
Sc	      2.83399      3.38359      2.45165         0.004046      0.009083     -0.002262
Mn	      2.89466      6.77656      4.85081        -0.009856      0.000370     -0.007617
V	      4.57023      2.45951      0.05152        -0.004225      0.026683      0.008185
Cr	      4.44350      4.27207      4.87382        -0.017316      0.016578     -0.008953
Fe	      2.78063      5.23140      0.02981        -0.005114     -0.016010      0.016955
Co	      3.10727      1.66243      4.83712        -0.004177     -0.006780     -0.002441
Cu	      7.13364      9.23523      4.78659        -0.000283     -0.000475      0.001761
Ni	      7.16176      6.01872      2.41724         0.001690     -0.003110      0.009148
Ni	      5.90533      3.41902      2.45714         0.003525      0.001836     -0.004972
O	      5.74420      6.82530      1.25701        -0.000921      0.003515     -0.004424
O	      5.69726      8.59499      5.89855         0.008408      0.016915      0.012300
O	      2.99969      8.32841      6.00730         0.007205      0.003875     -0.006230
O	      7.43376      7.48197      3.83678         0.006925      0.004375     -0.014714
O	      4.17695      7.70022      3.80209         0.002161     -0.009647      0.000420
O	      2.74217      6.72214      1.21264         0.001098      0.007380      0.009264
O	      7.41103      5.88291      6.12548        -0.003950     -0.003497      0.007326
O	      4.34021      5.96998      5.97027        -0.009560      0.004607     -0.012734
O	      2.96571      5.14612      3.75896        -0.002050      0.002084      0.002518
O	      5.83621      5.01078      3.63719        -0.010457     -0.009104      0.002823
O	      4.26380      4.14458      1.02795        -0.003469     -0.013365      0.001203
O	      1.40861      4.26593      1.27032         0.002146      0.001800     -0.001143
O	      3.06633      3.26044      5.89472         0.003285      0.007165     -0.002515
O	      5.94693      3.63649      6.09303         0.007646     -0.016344     -0.007575
O	      4.40237      2.62652      3.67815        -0.004586     -0.004307     -0.019187
O	      1.49685      2.41580      3.68130        -0.004130     -0.006563      0.002025
O	      5.80627      1.80314      1.11072         0.001583     -0.015315      0.006479
O	      3.09159      1.82829      1.12981         0.001139     -0.007819     -0.002874
