# total energy = -216.80032017 eV
 
CRYSTAL
PRIMVEC
5.998412 0.031411 -0.008483 
1.181780 7.629191 -0.085268 
1.744521 2.378852 7.214585 
PRIMCOORD
36 1
Li	      1.31441      7.51497      0.09835         0.000721      0.000693      0.005228
Li	      4.32562      7.54157      0.12965         0.003172     -0.000963      0.005082
Li	      5.72502      8.37205      2.19957         0.013974     -0.007988      0.003529
Li	      2.84428      8.22836      2.37238        -0.002822     -0.000837     -0.002324
Li	      5.80661      5.22125      0.06400         0.000999     -0.000534      0.002431
Li	      5.96417      6.68192      4.71129        -0.005521      0.000715     -0.001394
Li	      4.47913      6.04060      2.34214         0.002774     -0.001411     -0.000831
Li	      3.17467      4.83389      7.13440         0.005881     -0.001887      0.001417
Li	      1.47081      4.17696      4.73375         0.001425     -0.002732     -0.005603
Sc	      2.85150      3.31855      2.37232         0.004279      0.006195     -0.004636
Mn	      7.34617      9.21179      4.74564        -0.007416      0.004773      0.004787
V	      6.31093      4.81359      7.15969         0.003931     -0.016718      0.015310
Cr	      4.49969      4.22167      4.75708         0.001501      0.003856     -0.002396
Fe	      2.82640      5.18034     -0.06337         0.003307      0.010780      0.013028
Co	      4.39983      9.22407      4.75243        -0.000446      0.001757     -0.005934
Cu	      2.96292      6.67646      4.76192        -0.000127      0.005865     -0.011704
Ni	      7.27638      6.00698      2.34137         0.004032     -0.013788     -0.002351
Ni	      5.94630      3.42131      2.33035         0.000104     -0.003528      0.004716
O	      5.84774      6.78896      1.18977        -0.004277     -0.008302      0.007074
O	      5.96821      8.42349      5.90349         0.001463      0.003600      0.010467
O	      3.07814      8.30746      5.92809         0.000447     -0.004355      0.001421
O	      7.46990      7.56767      3.70150         0.006368      0.007201      0.005237
O	      4.34549      7.76108      3.68948        -0.014309     -0.008587      0.008885
O	      2.81655      6.66915      1.14214        -0.006195     -0.006725     -0.004251
O	      7.35678      5.73211      6.04917         0.012436      0.008981     -0.001408
O	      4.47541      5.83921      5.94954         0.004397     -0.000802     -0.007469
O	      3.00161      5.02600      3.63642        -0.004623     -0.004781     -0.003127
O	      5.88593      5.00577      3.54619        -0.002733      0.009404     -0.012753
O	      4.30586      4.09098      0.99649        -0.002817     -0.002072     -0.004156
O	      1.43985      4.22078      1.17098        -0.005074      0.006614     -0.005166
O	      3.11731      3.15702      5.79017        -0.004853      0.006113     -0.010899
O	      6.00203      3.40170      5.91889         0.002964     -0.004851     -0.003372
O	      4.49342      2.55042      3.58006        -0.008523      0.003059      0.004227
O	      1.39925      2.41291      3.55332         0.003831     -0.003588     -0.002585
O	      5.82324      1.78772      0.99017        -0.002063      0.004049     -0.011627
O	      3.09488      1.77440      1.03003        -0.006207      0.010792      0.011149
