# total energy = -217.46188603 eV
 
CRYSTAL
PRIMVEC
5.882440 0.029676 -0.032551 
1.157153 7.698926 0.097743 
1.680407 2.578271 7.244332 
PRIMCOORD
36 1
Li	      1.22489      7.66260      0.14538        -0.003027      0.004286     -0.016516
Li	      2.84429      0.09319      0.00619        -0.001206     -0.008166      0.013264
Li	      5.62361      8.42922      2.40995         0.000821      0.000020      0.011925
Li	      2.78056      8.41738      2.54623        -0.023264      0.007056     -0.004039
Li	      5.71711      5.23193      0.11445        -0.012377      0.000839     -0.005174
Li	      5.74445      6.95550      4.77276         0.004716      0.002000      0.002647
Li	      4.29283      6.16721      2.49866        -0.002944     -0.015726     -0.000006
Li	      3.09538      4.97800      7.23176         0.002455      0.011189     -0.004067
Li	      1.52401      4.26180      4.88129         0.008537      0.001825      0.002741
Sc	      2.86078      3.34964      2.45233         0.016960     -0.010518      0.007661
Mn	      7.12687      6.09844      2.43056         0.000296      0.023267     -0.005873
V	      6.16911      5.11187      7.18781         0.004539     -0.011733     -0.000946
Cr	      4.41358      4.39074      4.88181         0.009532     -0.005327     -0.000252
Fe	      2.77752      5.18499      0.00807        -0.010697      0.009786      0.006191
Co	      3.07235      1.73699      4.83741        -0.012810      0.007643      0.004214
Cu	      7.17438      9.35197      4.91459        -0.003379      0.005178      0.004733
Cu	      2.80806      6.88316      4.86439         0.000209      0.007703     -0.005857
Ni	      5.84062      3.45483      2.41517         0.002540     -0.007574      0.006924
O	      5.80387      6.76933      1.35456        -0.003945     -0.015048      0.001911
O	      5.68596      8.70070      6.01230         0.011783     -0.007205      0.000641
O	      2.93804      8.53052      6.05817        -0.000751      0.013695     -0.006619
O	      7.14010      7.59560      3.51812        -0.007036     -0.015834     -0.019974
O	      4.19285      7.84270      3.85125        -0.002389      0.005121      0.012317
O	      2.65831      6.72052      1.29984        -0.008955     -0.014657     -0.000394
O	      7.33376      6.00287      6.13612         0.006288     -0.000672     -0.000164
O	      4.56167      5.95576      6.19242        -0.001555      0.003533      0.006719
O	      2.92221      5.15479      3.68624         0.002986     -0.000029     -0.009212
O	      5.86219      5.11655      3.58164         0.010109     -0.006612      0.002320
O	      4.25297      4.19980      1.09429         0.000287     -0.002971     -0.006797
O	      1.40511      4.37759      1.34052        -0.010656     -0.001773     -0.006327
O	      3.08236      3.37186      5.92445        -0.002197     -0.001102     -0.005296
O	      5.91289      3.69094      6.08656         0.010683      0.013288      0.021928
O	      4.42620      2.70215      3.73563         0.003893     -0.000546      0.006618
O	      1.48745      2.46665      3.71525         0.002902      0.002366     -0.013057
O	      5.72005      1.87618      1.09033         0.004184      0.007466     -0.004907
O	      3.01916      1.79559      1.16460         0.003467     -0.000770      0.002722
