# total energy = -100.34217357 eV
 
CRYSTAL
PRIMVEC
0.000127 2.086984 2.087009 
17.118144 0.000043 0.000481 
-0.000081 2.087002 -2.087026 
PRIMCOORD
16 1
Li	      0.38939      2.08544      2.08451         0.013310      0.000590      0.000360
Li	      2.51608      2.08617     -0.00110         0.028182     -0.000725     -0.001386
Li	      4.22812      2.08644      2.08616        -0.019253     -0.000736     -0.000518
Li	      8.54413      2.08614      2.08620        -0.012045      0.001853      0.001012
Ti	      6.45202      2.08646     -0.00062        -0.369827     -0.000337     -0.000555
Ti	     15.01856      2.08564     -0.00330         0.886742     -0.000232     -0.000099
Ni	     10.39293      2.08603     -0.00133         0.008288     -0.000261     -0.001234
Ni	     12.60331      2.08588      2.08469         0.022813      0.000229      0.000220
O	     12.85037      2.08584     -0.00251         0.047855     -0.000448     -0.000104
O	     14.79294      2.08564      2.08377         0.047673      0.000849      0.001916
O	      8.38983      2.08626     -0.00086        -0.219376     -0.000412     -0.000353
O	     10.61885      2.08598      2.08560        -0.089924      0.000220     -0.000420
O	      4.62879      2.08635     -0.00077         0.407635     -0.000710     -0.000714
O	      6.50179      2.08639      2.08629         0.011013     -0.000093      0.000291
O	     16.77693      2.08568     -0.00321        -0.798246      0.000099      0.001617
O	      2.25459      2.08618      2.08590         0.035160      0.000115     -0.000032
