# total energy = -217.06006774 eV
 
CRYSTAL
PRIMVEC
5.927987 0.030283 -0.032832 
1.166875 7.642972 0.021984 
1.693923 2.488483 7.222508 
PRIMCOORD
36 1
Li	      1.23272      7.60435      0.09108        -0.014546     -0.013705     -0.006423
Li	      4.09952      7.68413      0.08324        -0.015189      0.002569     -0.007266
Li	      5.70110      8.34232      2.37482        -0.006369      0.009716     -0.005944
Li	      2.74980      8.31389      2.47376        -0.012292     -0.002387     -0.000930
Li	      5.75325      5.21031      0.08881        -0.006709      0.000652     -0.001299
Li	      5.80022      6.81849      4.70230         0.005482     -0.002364     -0.001118
Li	      4.37259      6.09994      2.41782        -0.012946     -0.000088     -0.006031
Li	      3.11907      4.87667      7.16395         0.009676     -0.000172      0.005524
Li	      1.54109      4.17643      4.83627         0.008078      0.002342      0.000949
Sc	      2.89471      3.35282      2.43585         0.006886      0.002266      0.016564
Mn	      2.82262      6.75900      4.79044        -0.021606     -0.004912     -0.006573
V	      6.19656      4.98581      7.15631         0.010583      0.005898     -0.006007
Cr	      4.48633      4.26041      4.85037         0.015455     -0.007905     -0.000644
Fe	      2.79868      5.18912     -0.00375        -0.017348     -0.005079      0.007306
Co	      4.24419      9.30626      4.84622        -0.017547      0.011013     -0.008160
Cu	      7.14529      6.05294      2.35191        -0.009143      0.018147      0.015682
Ni	      7.19191      9.29089      4.81234         0.014533     -0.011543     -0.003930
Ni	      5.91319      3.42594      2.38212        -0.012894     -0.004645     -0.017187
O	      5.73997      6.79040      1.20450         0.002651     -0.001217      0.010264
O	      5.66502      8.56019      5.93301         0.021519      0.007249     -0.000355
O	      2.92207      8.38223      5.95252         0.001906      0.007524     -0.017867
O	      7.20588      7.60647      3.56836        -0.004349     -0.009907     -0.000592
O	      4.16417      7.67600      3.77925         0.016341      0.008680      0.000069
O	      2.69365      6.70901      1.22108         0.013965      0.004364     -0.005447
O	      7.39556      5.89747      6.04506         0.010032     -0.008346      0.001792
O	      4.57328      5.85123      6.10550         0.009275     -0.001628      0.005228
O	      3.02905      5.08622      3.73337         0.003457      0.016384      0.000370
O	      5.87826      5.03016      3.56544        -0.011661      0.002234      0.013859
O	      4.29808      4.16505      1.04149         0.001192     -0.010120     -0.001011
O	      1.42998      4.31524      1.27590         0.007555     -0.008602      0.000558
O	      3.11538      3.27199      5.89662         0.010533      0.001227      0.000791
O	      5.99822      3.53298      6.02413        -0.003435      0.011090      0.013490
O	      4.46560      2.58203      3.68753        -0.006979     -0.004635      0.000733
O	      1.54007      2.45056      3.65515         0.013155      0.000834      0.009884
O	      5.77244      1.86967      1.02981        -0.010435      0.002155     -0.006866
O	      3.09136      1.80994      1.09718         0.001169     -0.017090      0.000587
