# total energy = -216.93516264 eV
 
CRYSTAL
PRIMVEC
5.964901 0.093758 -0.089761 
1.255112 7.681136 -0.030133 
1.661633 2.476200 7.212917 
PRIMCOORD
36 1
Li	      1.23673      7.58063      0.06733        -0.008548     -0.002216      0.002570
Li	      2.95357      0.08245      0.03465        -0.014377      0.002668      0.000836
Li	      5.76762      8.41166      2.32896        -0.006150      0.000140      0.003971
Li	      2.86022      8.33263      2.47612         0.000765      0.005519      0.000842
Li	      5.75588      5.34478     -0.05273        -0.005210      0.003551     -0.006125
Li	      5.89286      6.93718      4.64722        -0.004440      0.001352      0.004255
Li	      4.38937      6.19132      2.35149        -0.001711     -0.003638      0.006441
Li	      3.11549      4.86448      7.12342         0.001862      0.003571      0.000553
Li	      1.59440      4.19157      4.81575         0.002002     -0.001025     -0.001177
Sc	      2.95198      3.36437      2.37022         0.017391      0.001842     -0.011612
Mn	      5.98125      3.51794      2.29984        -0.000785      0.004841     -0.006266
V	      6.18239      5.04469      7.05084         0.001818      0.012748     -0.001570
Cr	      4.50755      4.30082      4.76870         0.005010      0.002655     -0.000830
Fe	      2.78769      5.25999     -0.11966         0.000080     -0.000642      0.000367
Co	      4.34031      9.34959      4.76258        -0.000733     -0.003568      0.010204
Cu	      7.27868      6.15841      2.27628        -0.008286     -0.001123      0.002918
Ni	      7.35253      9.35370      4.73548         0.004708     -0.003552     -0.004058
Ni	      2.90542      6.76655      4.75209        -0.001966     -0.004787      0.003929
O	      5.82479      6.86894      1.17888        -0.007724      0.002776      0.003084
O	      5.76442      8.60620      5.88734        -0.005633      0.004990      0.001376
O	      2.89844      8.39680      6.01393        -0.005485      0.001326      0.004469
O	      7.36972      7.64335      3.53409        -0.000789     -0.001900      0.005708
O	      4.34109      7.81847      3.69239        -0.002731     -0.002801      0.000657
O	      2.74479      6.74982      1.17364        -0.000912     -0.001624     -0.002747
O	      7.33425      5.90126      5.98478         0.005288     -0.000129     -0.002936
O	      4.54082      5.88832      6.01090         0.006763     -0.001545     -0.002984
O	      3.06858      5.05773      3.61927        -0.002193      0.001331     -0.000032
O	      5.94419      5.03779      3.45780         0.008131     -0.008615     -0.002306
O	      4.27076      4.22942      0.93873        -0.005188     -0.010876     -0.004574
O	      1.39988      4.29739      1.28204         0.001018     -0.004661      0.003192
O	      3.16227      3.29084      5.82062         0.004767      0.003048     -0.004665
O	      6.02441      3.55144      5.96186         0.002862      0.001513      0.000648
O	      4.66056      2.69265      3.51559         0.006639     -0.003485     -0.007415
O	      1.60353      2.44086      3.64380         0.007442      0.000927     -0.000891
O	      5.82051      1.99794      1.01589         0.002125     -0.000522      0.005563
O	      3.10882      1.83690      1.02598         0.004190      0.001910     -0.001394
