# total energy = -217.90899482 eV
 
CRYSTAL
PRIMVEC
5.877449 0.023194 -0.028324 
1.147947 7.724538 0.099054 
1.680910 2.585470 7.249539 
PRIMCOORD
36 1
Li	      1.21769      7.66109      0.12811        -0.003823     -0.003066     -0.007695
Li	      2.84029      0.10412      0.01030        -0.009931      0.003780     -0.004056
Li	      5.63939      8.42708      2.49600        -0.001359     -0.001895      0.002498
Li	      2.81735      8.44358      2.59436         0.008422     -0.004914      0.000121
Li	      5.63614      5.27238      0.10316         0.001039     -0.002706     -0.001923
Li	      5.74624      7.01105      4.80083        -0.002224     -0.000791     -0.005083
Li	      4.27927      6.21572      2.50327         0.006024     -0.003266     -0.003337
Li	      3.08107      4.99601      7.22189        -0.004402      0.010828      0.000261
Li	      1.52674      4.24565      4.91374        -0.002001      0.002318      0.002015
Sc	      2.84518      3.37156      2.46899         0.006559      0.008349      0.002467
Mn	      7.14134      6.09125      2.42734        -0.016523     -0.016536     -0.010723
V	      6.14243      5.14330      7.24882        -0.010175     -0.004294     -0.005897
Cr	      4.40745      4.38526      4.88322         0.006143     -0.000980      0.000547
Fe	      2.72215      5.22017     -0.04940         0.002562     -0.003893      0.000633
Co	      4.24198      9.44194      4.93140        -0.013705      0.002922      0.006950
Cu	      7.18948      9.39988      4.93996         0.000124     -0.001945     -0.000941
Cu	      5.82381      3.47832      2.40411        -0.007401     -0.000447     -0.000503
Ni	      2.83891      6.85819      4.85727         0.000268      0.000696     -0.004618
O	      5.80758      6.79316      1.38620         0.009060      0.000611      0.012538
O	      5.71066      8.71655      6.03135         0.002415     -0.002180      0.005634
O	      2.89245      8.58182      6.06654         0.007643      0.000394      0.001098
O	      7.22054      7.54229      3.57803         0.007382      0.009890      0.011904
O	      4.25839      7.88222      3.81681         0.000034     -0.002537     -0.002047
O	      2.64467      6.72993      1.28553         0.012385      0.009816     -0.005850
O	      7.26204      6.01222      6.15483         0.001682      0.003902     -0.001515
O	      4.40763      6.02268      6.08317        -0.003814      0.007557      0.007852
O	      2.91983      5.13357      3.65780         0.006794      0.000484      0.000784
O	      5.86877      5.07006      3.56057         0.001991      0.001749      0.005893
O	      4.11859      4.23825      0.99325        -0.000947     -0.008330     -0.004057
O	      1.35271      4.37645      1.35642        -0.000435      0.001254     -0.003290
O	      3.09090      3.37908      5.93816        -0.005655     -0.003288     -0.000205
O	      5.88433      3.73386      6.11692        -0.006000      0.001888      0.002194
O	      4.50840      2.69936      3.74480         0.011894     -0.002451     -0.007492
O	      1.59749      2.41978      3.79807         0.004519     -0.001525     -0.001555
O	      5.70932      1.92015      1.13030        -0.005962     -0.001170      0.006492
O	      2.99859      1.83165      1.14543        -0.002584     -0.000224      0.000904
