# total energy = -216.82988386 eV
 
CRYSTAL
PRIMVEC
5.996029 0.123055 -0.111914 
1.298821 7.673947 -0.071826 
1.655953 2.445577 7.200558 
PRIMCOORD
36 1
Li	      1.26850      7.56421      0.09788        -0.006761     -0.001091     -0.003457
Li	      4.34174      7.68642      0.03675         0.004811      0.003597      0.009980
Li	      5.84003      8.47437      2.12924        -0.010754     -0.005744      0.000011
Li	      2.87841      8.31001      2.37797         0.000992      0.004922     -0.005006
Li	      5.85172      5.34600     -0.05197         0.001722     -0.003396     -0.000816
Li	      5.98171      6.90326      4.62275         0.000640      0.001627      0.007045
Li	      4.46473      6.18050      2.22689         0.003301     -0.004147     -0.005507
Li	      3.13272      4.88494      7.11458        -0.001956      0.004800      0.001503
Li	      1.57962      4.18054      4.80039         0.002238      0.000601     -0.002249
Sc	      2.95535      3.37910      2.33500         0.015909     -0.023466     -0.004030
Mn	      6.01922      3.52449      2.27611        -0.005433      0.000235     -0.001092
V	      6.21169      5.01398      7.02183        -0.020090     -0.016809     -0.004511
Cr	      4.52614      4.29875      4.72595         0.019806     -0.006460     -0.000270
Fe	      2.85915      5.29160     -0.12817         0.000815     -0.009532     -0.020697
Co	      3.10669      1.66990      4.76694        -0.022864     -0.001793     -0.001106
Cu	      2.96740      6.77400      4.70199         0.004778      0.007298      0.010413
Ni	      7.41645      9.35864      4.68031         0.009921      0.017423      0.008564
Ni	      7.32955      6.15997      2.22955        -0.002032      0.000321      0.003409
O	      5.85759      6.89800      1.10128        -0.009687      0.003412      0.006293
O	      5.79233      8.59998      5.78537         0.005816     -0.004791      0.017807
O	      2.92154      8.31630      5.95252        -0.007685     -0.014622     -0.004223
O	      7.48517      7.68698      3.54847         0.005263     -0.024913     -0.003705
O	      4.36392      7.81153      3.66036         0.004728     -0.003075     -0.002060
O	      2.82006      6.75154      1.09374        -0.009344      0.003845      0.005034
O	      7.33258      5.89687      5.96314         0.000943     -0.004498     -0.000319
O	      4.53983      5.88615      5.95696        -0.002104      0.015414      0.003644
O	      3.06433      5.10412      3.60205        -0.012571      0.001070     -0.011598
O	      5.95814      5.02836      3.44447         0.006400      0.004075     -0.006141
O	      4.30062      4.23479      0.92206        -0.007070     -0.002537     -0.004413
O	      1.40246      4.21381      1.24977        -0.012164      0.013518      0.001013
O	      3.15637      3.28273      5.74977         0.008094     -0.001308     -0.006865
O	      6.03583      3.54555      5.91863         0.006425      0.024167      0.009813
O	      4.68242      2.68856      3.47201        -0.002933      0.009948     -0.008784
O	      1.62659      2.42695      3.63400         0.012679      0.019358     -0.010654
O	      5.85084      1.98136      0.98621         0.004538     -0.009795      0.023768
O	      3.13666      1.85295      1.00969         0.013630      0.002343     -0.000795
