# total energy = -216.37685346 eV
 
CRYSTAL
PRIMVEC
6.030802 -0.032520 0.054249 
1.106143 7.643047 -0.030302 
1.803206 2.409774 7.234028 
PRIMCOORD
36 1
Li	      1.23749      7.56947      0.10146         0.001224      0.004219     -0.001933
Li	      4.21430      7.57962      0.13431        -0.002011     -0.002235     -0.006465
Li	      5.61735      8.35066      2.23188        -0.010232      0.011516     -0.006057
Li	      2.87594      8.22441      2.46561        -0.003759      0.000322      0.009281
Li	      5.82039      5.20392      0.11016         0.003711      0.004226     -0.006815
Li	      5.89873      6.76723      4.74954         0.000321     -0.007399      0.007689
Li	      4.37352      6.06797      2.34784         0.009382     -0.011371      0.003730
Li	      3.21111      4.77859      7.22461         0.009720     -0.003436      0.000330
Li	      1.62835      4.09525      4.88579        -0.002375     -0.001691      0.001205
Sc	      2.87565      3.32505      2.44048         0.005332     -0.001475      0.003533
Mn	      5.93627      3.36479      2.41880        -0.004060      0.010483      0.019125
V	      6.28118      4.88545      7.15852         0.004907      0.004333     -0.027500
Cr	      4.52710      4.18412      4.87144         0.012673      0.002188     -0.003217
Fe	      4.61281      7.59773      7.20563         0.005459      0.000612     -0.011321
Co	      4.32210      9.22819      4.82758         0.004625     -0.008349     -0.000344
Cu	      7.33202      9.14048      4.83098         0.002137     -0.013730     -0.000370
Cu	      2.92573      6.69024      4.78571        -0.007387      0.004840      0.003491
Ni	      7.24203      5.99462      2.39052         0.003843      0.005068      0.001289
O	      5.80277      6.75869      1.23530         0.010210      0.002575      0.003016
O	      5.80437      8.51769      5.86953        -0.008281      0.001630     -0.007519
O	      3.12312      8.24748      6.00532         0.008463      0.001302     -0.003008
O	      7.47873      7.48171      3.80087         0.003760     -0.001079      0.000274
O	      4.32302      7.65460      3.74801        -0.005071      0.006709      0.006093
O	      2.74777      6.67028      1.18428        -0.000161      0.000984      0.001525
O	      7.48282      5.74929      6.14685        -0.013497      0.002328      0.003978
O	      4.68003      5.75957      6.12267         0.001027     -0.002151      0.012767
O	      3.06456      5.01630      3.73083        -0.004393     -0.010691      0.000752
O	      5.96369      4.85694      3.58629        -0.013566     -0.003357     -0.010795
O	      4.25576      4.15211      1.04421        -0.007959      0.000548      0.000136
O	      1.34721      4.18718      1.28912         0.004633     -0.011958      0.003973
O	      3.17250      3.20053      5.91238        -0.011716     -0.004450      0.005262
O	      6.07533      3.44547      6.05266        -0.004824      0.011112      0.005443
O	      4.50452      2.59691      3.59878        -0.006802      0.007998     -0.005599
O	      1.62370      2.33084      3.74291         0.005483      0.006489     -0.005122
O	      5.76807      1.87607      1.14025        -0.000361      0.000309     -0.000268
O	      3.07570      1.76136      1.13439         0.009542     -0.006418      0.003440
