# total energy = -225.64382537 eV
 
CRYSTAL
PRIMVEC
6.052367 -0.053592 0.083797 
1.083393 7.619693 -0.054627 
1.836450 2.368353 7.246525 
PRIMCOORD
36 1
Li	      1.21558      7.56702      0.06726        -0.002488      0.002725     -0.004279
Li	      4.21678      7.54144      0.18946        -0.005073      0.004800      0.002444
Li	      5.70093      8.27492      2.32671        -0.001334      0.001422      0.005298
Li	      2.85769      8.18588      2.49384        -0.005830      0.002861     -0.001897
Li	      5.80214      5.13618      0.12506        -0.007285      0.011336     -0.000430
Li	      5.83524      6.72841      4.70112        -0.002624      0.002556     -0.000445
Li	      4.32704      6.04921      2.37129        -0.005080     -0.001362     -0.002060
Li	      3.25521      4.71807      7.23997         0.023797     -0.009378      0.013754
Li	      1.69317      4.07825      4.87001         0.008753     -0.006103      0.004066
Sc	      2.92811      3.30116      2.44084        -0.015751      0.010535      0.003041
Mn	      7.34730      9.07683      4.85997        -0.006544     -0.007664     -0.005241
Mn	      5.96812      3.35084      2.39147         0.000358     -0.006779     -0.013873
V	      6.32233      4.81588      7.15152         0.010567     -0.006032      0.005390
Cr	      4.58924      4.13549      4.89465        -0.000286      0.003027      0.004502
Fe	      2.74332      5.15094     -0.03038        -0.011095     -0.000224      0.002142
Co	      4.31760      9.16088      4.82439        -0.004528      0.006697     -0.008879
Co	      7.17962      6.03652      2.39126         0.003607      0.004259     -0.003126
Cu	      2.88159      6.61128      4.78667        -0.002585      0.002390     -0.015435
O	      5.77992      6.70208      1.21946        -0.006708      0.000476     -0.001838
O	      5.80583      8.40924      5.90436        -0.004576      0.001117      0.009941
O	      3.07124      8.22258      6.00218         0.001365      0.002728      0.008565
O	      7.24961      7.61898      3.65213        -0.002285     -0.003215      0.004585
O	      4.26551      7.58358      3.76250        -0.003177      0.002453      0.002674
O	      2.72000      6.62267      1.20535         0.002511     -0.008295     -0.003698
O	      7.55297      5.66796      6.14136         0.007433      0.007504     -0.009450
O	      4.81391      5.66153      6.19983         0.006711     -0.005508      0.005279
O	      3.14967      4.93829      3.75009         0.002545     -0.001667     -0.000250
O	      6.04800      4.81353      3.61002         0.004545     -0.007453     -0.002289
O	      4.29248      4.12465      1.05282        -0.001275      0.002747      0.000549
O	      1.39220      4.14164      1.25508         0.013854     -0.008496      0.005039
O	      3.22795      3.15460      5.93295         0.003437      0.003082      0.003804
O	      6.15519      3.31194      6.04686        -0.002035      0.003490      0.007691
O	      4.58822      2.54433      3.63776         0.007688     -0.001930     -0.002209
O	      1.67000      2.30842      3.75595        -0.000693      0.007638     -0.004800
O	      5.79900      1.86744      1.14123        -0.003392      0.004499     -0.002871
O	      3.12462      1.72504      1.14517        -0.002529     -0.014234     -0.005692
