# total energy = -217.03787031 eV
 
CRYSTAL
PRIMVEC
6.008881 -0.016418 0.061273 
1.122378 7.637643 -0.065355 
1.812072 2.376786 7.273060 
PRIMCOORD
36 1
Li	      1.17567      7.58909      0.06335         0.001080     -0.001860     -0.004018
Li	      2.97886      0.01961      0.09516        -0.008124      0.008008     -0.007506
Li	      5.77887      8.31321      2.40131        -0.003286     -0.006138      0.000271
Li	      2.83768      8.24157      2.48729        -0.005130      0.004600     -0.002970
Li	      5.65670      5.24317      0.03521        -0.012068      0.006928     -0.001511
Li	      5.90780      6.75175      4.77672        -0.001367     -0.000055      0.004781
Li	      4.39588      6.03748      2.40404         0.008308      0.000871     -0.001857
Li	      3.24587      4.76237      7.22079         0.003370      0.006815     -0.004091
Li	      1.61100      4.07371      4.84333        -0.002298     -0.003807     -0.000028
Sc	      2.93074      3.30822      2.45555         0.010914     -0.001595      0.001237
Mn	      2.87863      6.64024      4.80356         0.002789     -0.019472     -0.012420
V	      6.32861      4.88059      7.23785        -0.016288      0.013679      0.008518
Cr	      4.63179      4.16973      4.86523        -0.013502      0.000372      0.020763
Fe	      2.74965      5.15241     -0.05280         0.009079     -0.007487     -0.001092
Co	      3.20447      1.57619      4.93369         0.005236      0.008223      0.003962
Cu	      7.20928      5.99986      2.37679        -0.000615      0.009276     -0.002036
Cu	      6.01120      3.32952      2.41855        -0.010881     -0.004007      0.000260
Ni	      7.31458      9.18461      4.81931         0.000876      0.002930      0.002449
O	      5.78815      6.75445      1.25696         0.006134     -0.003025     -0.001942
O	      5.85612      8.40827      6.01835         0.000657     -0.007256     -0.011263
O	      2.94516      8.20298      5.99809        -0.003625     -0.008372      0.008771
O	      7.33643      7.47702      3.64036         0.009986      0.001407      0.000144
O	      4.25973      7.56669      3.78943        -0.004938      0.003399     -0.003775
O	      2.66755      6.69437      1.17428        -0.010945      0.001625      0.005768
O	      7.53004      5.73536      6.10310         0.006912      0.001817     -0.001887
O	      4.67303      5.72692      6.11756        -0.011372     -0.000437     -0.004394
O	      3.14712      4.98854      3.76656        -0.002988      0.002137      0.013108
O	      6.01402      4.88487      3.58113         0.003078      0.004260      0.000375
O	      4.20940      4.16502      0.95781        -0.002413      0.000771     -0.009051
O	      1.42852      4.27072      1.29608         0.002921      0.000301     -0.008999
O	      3.23962      3.16548      5.95013        -0.001417     -0.002226     -0.006347
O	      6.11247      3.42263      6.07813         0.006004     -0.000282     -0.010546
O	      4.63294      2.50781      3.66208         0.012663      0.001009     -0.002240
O	      1.68847      2.33958      3.71966         0.000394     -0.010854      0.015588
O	      5.79653      1.87790      1.06860         0.005835     -0.006895      0.012107
O	      3.11326      1.77133      1.10931         0.015023      0.005337     -0.000129
