# total energy = -103.03750448 eV
 
CRYSTAL
PRIMVEC
4.134796 0.000473 -0.000991 
2.069465 4.166815 -6.250269 
2.067307 4.168346 2.083948 
PRIMCOORD
16 1
Li	      2.07324      4.15657      2.05847         0.001684      0.008366     -0.034828
Li	      2.05640      2.34061     -0.04456        -0.000829      0.024615     -0.002068
Li	      4.13103      4.23307      0.01748        -0.003923     -0.019383      0.026289
Li	      2.07158      4.16221     -2.05732        -0.002848      0.000972      0.029685
Ti	      4.06229      2.06092     -2.04736        -0.044837     -0.300580      0.123480
Ti	      6.19090      6.24110     -4.34921         0.002511      0.338328     -0.211258
Ni	      4.14044      6.16846     -2.06908        -0.006260      0.009595     -0.005885
Ni	      4.14472      4.11585     -4.16736        -0.001195      0.034642     -0.033682
O	      4.15001      4.07000     -2.10090         0.002986     -0.124101      0.092691
O	      6.21274      6.24066     -2.02905        -0.006523     -0.134433      0.002316
O	      4.13480      2.11644      0.01125        -0.008700     -0.019497      0.164562
O	      6.21587      4.39212      0.04451        -0.014014      0.303756     -0.012068
O	      2.10239      2.10916     -2.06921         0.074355      0.009666      0.091950
O	      6.21323      4.24501     -4.18403         0.002030      0.090462      0.006457
O	      4.14458      6.18109     -4.17314         0.007154      0.117938     -0.099277
O	      6.21209      8.06830     -4.11966        -0.001590     -0.340348     -0.138364
