# total energy = -216.70487179 eV
 
CRYSTAL
PRIMVEC
5.985304 -0.005093 0.030468 
1.132695 7.599776 -0.048037 
1.773192 2.389038 7.220745 
PRIMCOORD
36 1
Li	      1.21804      7.54926      0.05771         0.005013      0.000014      0.012615
Li	      2.92092      0.05391      0.07736        -0.015917     -0.000613     -0.004522
Li	      5.66965      8.28644      2.29754         0.003110     -0.008015      0.000804
Li	      2.84194      8.20232      2.43840         0.003312      0.002267     -0.003000
Li	      5.80204      5.11940      0.10472         0.000569     -0.008203     -0.002375
Li	      5.82253      6.69622      4.65638         0.003596      0.004241     -0.002359
Li	      4.37407      6.01773      2.41263        -0.002333      0.009126      0.001707
Li	      3.19827      4.74258      7.18387        -0.003350      0.002087     -0.005689
Li	      1.60086      4.13876      4.80342         0.006921     -0.000019      0.000299
Sc	      2.91419      3.29754      2.42210         0.002972     -0.010260     -0.004930
Mn	      7.27622      9.12298      4.77296        -0.003707      0.004767      0.006952
V	      6.30429      4.84574      7.14062        -0.004498      0.000587      0.005306
Cr	      4.53728      4.18846      4.84907        -0.003682     -0.012535     -0.011631
Fe	      2.77504      5.12299     -0.05593         0.004050     -0.015259      0.001706
Co	      4.30541      9.18664      4.79624         0.013060      0.011468     -0.003053
Cu	      2.87839      6.64779      4.76206        -0.002193     -0.001696      0.003219
Cu	      7.19591      5.98237      2.37427         0.011092      0.002777     -0.001169
Ni	      5.92566      3.37111      2.37488         0.003076      0.004492      0.010702
O	      5.78157      6.69310      1.21287         0.013307     -0.001406      0.011550
O	      5.80182      8.43130      5.88062         0.013844     -0.006375     -0.000820
O	      3.05123      8.26045      5.96175        -0.015209     -0.012785     -0.013385
O	      7.23684      7.58272      3.58121        -0.021702      0.014438     -0.014270
O	      4.25698      7.61961      3.72939        -0.016709     -0.010380      0.003170
O	      2.69741      6.63618      1.19191         0.006562      0.006335      0.002943
O	      7.47573      5.72742      6.09478         0.000315     -0.003990      0.014035
O	      4.72671      5.70727      6.16946         0.012192      0.007181     -0.002572
O	      3.08154      4.97167      3.70742        -0.002974      0.009168      0.006318
O	      5.96473      4.96327      3.57864        -0.009141     -0.002386      0.008465
O	      4.31931      4.10462      1.05908         0.015334      0.000240     -0.000912
O	      1.43316      4.26420      1.25598        -0.018762      0.009086      0.001469
O	      3.19027      3.18510      5.91208        -0.004945      0.004005     -0.009654
O	      6.07070      3.35472      5.98371         0.007345     -0.007521     -0.003229
O	      4.49182      2.54370      3.66416         0.002949      0.005006      0.003310
O	      1.55050      2.35781      3.68736        -0.003339     -0.002198      0.003756
O	      5.77236      1.81067      1.06118        -0.014001     -0.000240     -0.016576
O	      3.07759      1.73401      1.12524         0.013843      0.006597      0.001818
