# total energy = -216.93633860 eV
 
CRYSTAL
PRIMVEC
5.989640 -0.011142 0.057183 
1.125772 7.617964 -0.048761 
1.804260 2.387777 7.243696 
PRIMCOORD
36 1
Li	      1.23166      7.53399      0.06850        -0.005965      0.012242     -0.008780
Li	      2.88375      0.07527      0.04741        -0.017146      0.017765     -0.005659
Li	      5.69148      8.28296      2.38206        -0.010592     -0.010350      0.011333
Li	      2.92855      8.19005      2.49593        -0.007353      0.005519     -0.003190
Li	      5.75950      5.14841      0.13661         0.008355      0.001640     -0.004153
Li	      5.85083      6.72898      4.70291        -0.004760      0.000404      0.003140
Li	      4.37302      6.05303      2.42946         0.012072      0.002297      0.002208
Li	      3.20723      4.74169      7.18848        -0.004671      0.024025     -0.004595
Li	      1.63874      4.11093      4.86032        -0.004094     -0.007062      0.004015
Sc	      2.89814      3.30836      2.44455         0.005476     -0.003390     -0.012781
Mn	      7.34391      9.14165      4.84220        -0.001327     -0.006981      0.006530
V	      6.29440      4.86453      7.21009        -0.013727     -0.000713     -0.023554
Cr	      4.54235      4.17272      4.85333         0.004566      0.015250      0.017477
Fe	      2.74324      5.14891     -0.08697         0.013235     -0.005064      0.001094
Co	      4.34157      9.18716      4.81585        -0.009259      0.005540      0.004350
Cu	      7.24791      5.97184      2.42296         0.004652     -0.009730      0.017855
Cu	      5.92715      3.38301      2.39284        -0.002320     -0.011124      0.000298
Ni	      2.93422      6.64182      4.79478         0.003207     -0.006642      0.001596
O	      5.82514      6.70440      1.28180         0.003090     -0.001312     -0.003928
O	      5.84096      8.46115      5.90782         0.003193      0.003417      0.001095
O	      3.05939      8.30817      6.01036         0.005429     -0.004909      0.005622
O	      7.39139      7.51383      3.71295         0.007967      0.000405     -0.001357
O	      4.35465      7.64049      3.72588        -0.007777     -0.002291     -0.001446
O	      2.71252      6.65231      1.20475        -0.010599      0.006260      0.006770
O	      7.42452      5.72927      6.12938         0.013961      0.010674     -0.006120
O	      4.57568      5.76970      6.06923         0.001626     -0.001790     -0.001493
O	      3.08712      4.94199      3.68924        -0.001371     -0.006261     -0.010633
O	      5.99734      4.91378      3.58528         0.010331      0.006055     -0.002467
O	      4.17394      4.14711      0.95588        -0.002435     -0.009782     -0.004190
O	      1.37581      4.26642      1.29160         0.000944     -0.014581     -0.003159
O	      3.21990      3.19094      5.94251        -0.009156     -0.012970     -0.006185
O	      6.06644      3.37899      6.01923         0.001128      0.004664      0.000039
O	      4.57128      2.54441      3.64290         0.004853     -0.008820     -0.001775
O	      1.70128      2.28657      3.80778         0.001544     -0.000122     -0.004266
O	      5.74478      1.86055      1.09444         0.009940     -0.003583      0.010249
O	      3.04676      1.76110      1.09595        -0.003018      0.011321      0.016060
