# total energy = -217.41399362 eV
 
CRYSTAL
PRIMVEC
6.034030 -0.088931 0.124837 
1.033794 7.637440 -0.024138 
1.867110 2.387574 7.260149 
PRIMCOORD
36 1
Li	      1.20165      7.55417      0.11996        -0.000348     -0.003663      0.002225
Li	      4.14463      7.55740      0.13568         0.020254     -0.005356      0.009039
Li	      5.54833      8.30467      2.32749        -0.003001     -0.006329     -0.006736
Li	      2.84607      8.18456      2.50619        -0.010310     -0.004482     -0.001680
Li	      5.76955      5.16161      0.22211         0.002358      0.002961      0.005561
Li	      5.89612      6.66941      4.82113        -0.008537      0.017500     -0.010852
Li	      4.36537      6.02977      2.37867         0.012715      0.001510      0.002075
Li	      3.29035      4.77245      7.25690        -0.000034     -0.001655     -0.001253
Li	      1.61341      4.04827      4.92211         0.002983     -0.000448     -0.000545
Sc	      2.85524      3.32050      2.48981        -0.002560     -0.003432      0.011422
Mn	      2.95532      6.64165      4.85899         0.000283     -0.008426      0.007724
V	      4.58101      2.42025      0.10546         0.013072     -0.021186      0.001968
Cr	      4.55743      4.14203      4.90890        -0.009880      0.009932      0.002363
Fe	      2.72388      5.17160     -0.00427         0.000895     -0.005466      0.005604
Co	      4.27867      9.18807      4.87429        -0.005508      0.003533      0.007384
Cu	      7.26973      9.06960      4.86419        -0.004394      0.001434      0.002413
Cu	      5.96748      3.30489      2.51099         0.003178     -0.007760     -0.000232
Ni	      7.19626      5.92445      2.47693         0.003890      0.003615      0.004847
O	      5.77239      6.72777      1.31213         0.002995      0.005820     -0.003227
O	      5.77568      8.46024      5.90430        -0.001915     -0.001011      0.004842
O	      3.07653      8.17336      6.02969         0.006607      0.008828     -0.005706
O	      7.56462      7.30822      3.95014         0.002965     -0.005788     -0.002203
O	      4.25030      7.53886      3.80772        -0.002162      0.007007     -0.012307
O	      2.70911      6.66127      1.20228        -0.000373      0.001440      0.010078
O	      7.57125      5.70321      6.21174        -0.007716      0.003957     -0.002718
O	      4.40318      5.84431      5.97439        -0.012812      0.009355     -0.010759
O	      3.07138      5.01732      3.77719        -0.001894     -0.005790     -0.004321
O	      5.97703      4.82928      3.68187        -0.015927     -0.000398     -0.008535
O	      4.15944      4.11050      0.93828        -0.005994      0.008393     -0.002351
O	      1.37574      4.19472      1.29702         0.010213     -0.000894     -0.005396
O	      3.19905      3.16488      5.96286         0.000447     -0.002884      0.000856
O	      6.06795      3.50256      6.14428         0.007671      0.015789      0.011476
O	      4.48498      2.52790      3.67084         0.002503     -0.009347     -0.009300
O	      1.72778      2.25968      3.83664         0.006384      0.005316      0.001203
O	      5.82224      1.78247      1.19377        -0.001958     -0.011843     -0.000968
O	      3.10982      1.75922      1.16944        -0.004089     -0.000231     -0.001990
