# total energy = -216.57945124 eV
 
CRYSTAL
PRIMVEC
5.997784 0.006812 0.019996 
1.150262 7.633369 -0.010810 
1.768782 2.439487 7.232624 
PRIMCOORD
36 1
Li	      1.19395      7.60573      0.06215         0.000533     -0.005450     -0.000729
Li	      4.13139      7.64767      0.09059        -0.011792      0.005077     -0.009630
Li	      5.65779      8.34892      2.28115        -0.016916      0.004399     -0.010386
Li	      2.84889      8.26029      2.51168        -0.006314      0.003333      0.002129
Li	      5.71529      5.22447      0.04004        -0.009633      0.011277     -0.010168
Li	      5.87507      6.82431      4.73227         0.005518     -0.002144     -0.003207
Li	      4.33146      6.08397      2.38903        -0.001107     -0.001996     -0.003102
Li	      3.20264      4.80488      7.22575         0.008579      0.004274      0.010295
Li	      1.67399      4.13826      4.87069         0.000592     -0.003863      0.001607
Sc	      2.94467      3.33937      2.45485         0.007827     -0.006460     -0.011223
Mn	      5.98567      3.39433      2.39665         0.001221      0.004113      0.000347
V	      6.26271      4.94512      7.13714         0.001318      0.003312      0.002848
Cr	      4.56693      4.20633      4.88271         0.018981     -0.009391     -0.000990
Fe	      4.51999      7.61409      7.19864         0.000916     -0.001828      0.000387
Co	      4.32424      9.24607      4.83791         0.001951     -0.017001      0.009237
Cu	      2.90105      6.70816      4.77409         0.002373      0.008831      0.005730
Cu	      7.14877      6.10696      2.34191         0.003668      0.010295      0.009617
Ni	      7.31982      9.20007      4.83320        -0.003136     -0.007269     -0.006153
O	      5.73151      6.77274      1.18017        -0.001894      0.002517      0.000331
O	      5.74940      8.49296      5.93980        -0.002965      0.005958     -0.001870
O	      2.99694      8.32828      5.94991         0.005219      0.002241     -0.003611
O	      7.38028      7.50190      3.67602         0.010734     -0.015547      0.000841
O	      4.31265      7.67171      3.75996        -0.000508      0.005942      0.009539
O	      2.65355      6.68751      1.19911         0.000382     -0.004148     -0.000776
O	      7.48479      5.79755      6.13074         0.004842      0.002522     -0.003780
O	      4.71957      5.76387      6.15866        -0.006738      0.001537     -0.000851
O	      3.14940      4.99763      3.74993        -0.001971      0.000834      0.001460
O	      5.99011      4.91098      3.54677        -0.008103     -0.002504      0.001074
O	      4.27788      4.18080      1.04072        -0.002742     -0.003587      0.001944
O	      1.40986      4.20062      1.28181         0.002808     -0.011498      0.001170
O	      3.20601      3.22370      5.92684         0.000829      0.007363      0.003931
O	      6.11543      3.46104      6.06165        -0.000419     -0.001188     -0.002453
O	      4.61732      2.57034      3.66284        -0.005251      0.004205      0.004875
O	      1.64419      2.38794      3.70323         0.001153      0.004563     -0.001847
O	      5.79768      1.91058      1.14193         0.001781     -0.003324     -0.003840
O	      3.11391      1.77159      1.13960        -0.001735      0.004606      0.007254
