# total energy = -225.66284675 eV
 
CRYSTAL
PRIMVEC
6.015559 -0.041900 0.087399 
1.091515 7.622652 0.003743 
1.835583 2.426712 7.264460 
PRIMCOORD
36 1
Li	      1.19565      7.66107      0.16845        -0.009058     -0.004987      0.002322
Li	      2.97972      0.02103      0.11441        -0.008494      0.002286     -0.001519
Li	      4.58120      0.72982      2.31037         0.000634     -0.001640     -0.006472
Li	      2.79369      8.24144      2.52704        -0.007719      0.004361     -0.009233
Li	      5.79750      5.15071      0.20114        -0.002065     -0.001940      0.007771
Li	      5.88044      6.73940      4.82308         0.001004      0.002322     -0.000803
Li	      4.31847      6.04573      2.41020         0.014412      0.007502     -0.013980
Li	      3.23448      4.82797      7.25847        -0.001837     -0.004607     -0.000902
Li	      1.67566      4.11601      4.92133        -0.000432      0.006917      0.005441
Sc	      2.93031      3.34646      2.47564        -0.007765     -0.003020      0.000309
Mn	      7.34522      9.17166      5.00626        -0.016750     -0.008533     -0.001897
Mn	      5.97634      3.32298      2.39861         0.004982      0.009061      0.004849
V	      6.28703      4.93289      7.21770         0.007020     -0.004691     -0.007258
Cr	      4.58960      4.16774      4.90281         0.023536      0.010836      0.003194
Fe	      2.73714      5.14513      0.03413        -0.014526      0.007104      0.008516
Co	      4.30913      9.19615      4.89715         0.007297     -0.023300     -0.006291
Co	      2.88872      6.66634      4.84688         0.002237      0.015939      0.008635
Cu	      7.12942      6.07264      2.47404        -0.004505     -0.004425      0.001657
O	      5.75381      6.73877      1.29264         0.004956     -0.004499     -0.004349
O	      5.76287      8.46419      5.98805         0.007794      0.008023      0.011483
O	      3.05402      8.22735      6.04575         0.008904      0.000998     -0.006708
O	      7.37151      7.58974      3.90146         0.006393      0.007032     -0.005881
O	      4.21357      7.55005      3.87238         0.003718      0.010704      0.007129
O	      2.63646      6.64433      1.25067         0.008763      0.007145     -0.000854
O	      7.59454      5.75253      6.14112        -0.008756     -0.011143      0.016275
O	      4.72425      5.73744      6.14852         0.002521     -0.001733      0.003628
O	      3.12509      5.01949      3.79774         0.000733     -0.000424     -0.000627
O	      6.02158      4.84503      3.58357        -0.004990     -0.004673      0.001534
O	      4.28521      4.17983      1.09982        -0.012653      0.002415      0.001904
O	      1.42762      4.07074      1.23721        -0.000646     -0.001153      0.004663
O	      3.23452      3.17467      5.95030         0.001853     -0.001844      0.000678
O	      6.09958      3.34383      6.00706        -0.003956     -0.012036     -0.011895
O	      4.56931      2.54176      3.65502        -0.004130     -0.002182      0.000403
O	      1.69489      2.33577      3.77387         0.006965      0.002539      0.001923
O	      5.85287      1.83166      1.20351         0.004398     -0.007562     -0.021642
O	      3.14456      1.74891      1.16001        -0.009840     -0.000789      0.007999
