# total energy = -103.53830493 eV
 
CRYSTAL
PRIMVEC
2.041293 4.230236 2.091575 
4.120545 -2.127698 -2.103686 
-0.000006 4.229402 -4.181429 
PRIMCOORD
16 1
Li	      2.14892      4.16272      2.00703        -0.001377     -0.008253     -0.007175
Li	      2.01860      2.11163     -0.03593        -0.006675     -0.001184     -0.010379
Li	      1.97269      0.11653     -2.02658        -0.010828      0.008657      0.008789
Li	      0.06383      2.07772     -2.09064         0.003384     -0.003275      0.026818
Ti	      4.15291      2.11906     -2.00428         0.135545     -0.079555      0.095114
Ti	      4.13910      4.18153     -4.24574         0.026368      0.026954     -0.163375
Ni	      2.04034      4.19874     -2.09752        -0.044287      0.001360      0.021221
Ni	      4.03968      6.32744     -2.09979        -0.022057     -0.043703     -0.071161
O	      2.15016      2.14584     -2.14220         0.076389     -0.103527      0.112801
O	      4.10114      4.17133     -2.17204         0.122946     -0.119424     -0.042084
O	      2.15248      4.15367     -4.17492         0.092921      0.095302     -0.097423
O	      4.10859      1.98991     -0.06215         0.004675     -0.068663     -0.199164
O	      4.09668      0.13264     -1.99175         0.017509      0.097679      0.173788
O	      1.92146      4.25761     -0.01933        -0.180275      0.005985      0.103234
O	      4.09254      2.19846     -4.10867        -0.004793      0.106693      0.042505
O	      1.96430      6.29386     -2.09946        -0.209445      0.084952      0.006491
