# total energy = -225.81758571 eV
 
CRYSTAL
PRIMVEC
6.013593 -0.028333 0.063762 
1.108464 7.620246 0.013726 
1.812049 2.442234 7.256155 
PRIMCOORD
36 1
Li	      1.15165      7.63580      0.11121         0.006806      0.003033     -0.007462
Li	      2.97350      0.04508      0.06447        -0.006770      0.017360     -0.016140
Li	      5.73222      8.31600      2.38543        -0.009433      0.014394     -0.000077
Li	      2.80608      8.27345      2.49219        -0.007399      0.019247     -0.000146
Li	      5.76670      5.17283      0.14343        -0.008285      0.004165     -0.020208
Li	      5.85965      6.78143      4.79661         0.012690     -0.006585     -0.006242
Li	      4.35239      6.04975      2.40998        -0.009538     -0.023926      0.009725
Li	      3.21654      4.82083      7.25596        -0.014352      0.005215      0.022995
Li	      1.66716      4.08225      4.94906        -0.009332     -0.002680      0.004648
Sc	      2.94549      3.33480      2.49108        -0.013943      0.005401     -0.012762
Mn	      2.87654      6.67945      4.83430        -0.010862     -0.023323      0.007984
Mn	      5.99234      3.32913      2.41349        -0.002395      0.002092     -0.014820
V	      6.26600      4.95517      7.22008         0.013498      0.001746      0.011335
Cr	      4.60756      4.16646      4.92144         0.011199      0.020227      0.003015
Fe	      2.76201      5.14427      0.02068        -0.001481     -0.016586      0.006639
Co	      4.30855      9.21250      4.89467        -0.007291      0.010754     -0.017358
Co	      7.31169      9.18286      4.93414         0.005180     -0.000170      0.008765
Cu	      7.17740      6.04099      2.45370        -0.008417     -0.004341     -0.001895
O	      5.77068      6.73255      1.27587         0.013889     -0.007810      0.018023
O	      5.75279      8.47657      5.97779         0.002333      0.003706     -0.009074
O	      3.04075      8.26234      6.03383        -0.005681      0.016239      0.020681
O	      7.31899      7.56692      3.75082         0.009066     -0.011376      0.001799
O	      4.23177      7.59315      3.82153         0.008744     -0.008242     -0.009286
O	      2.62786      6.65835      1.26273         0.012897     -0.013565     -0.005666
O	      7.55675      5.79415      6.13504         0.010888      0.012810     -0.005359
O	      4.69513      5.76254      6.15162        -0.000405      0.002458     -0.001338
O	      3.12989      5.01254      3.80634        -0.007018      0.006084     -0.004290
O	      6.00909      4.89138      3.56876         0.000999     -0.003621     -0.015382
O	      4.27923      4.19920      1.10609        -0.002026      0.009549     -0.001456
O	      1.42235      4.15028      1.28597         0.002125     -0.003514      0.011639
O	      3.23793      3.19095      5.95649        -0.008947      0.000404      0.011073
O	      6.11015      3.38131      6.03137        -0.012326     -0.007442     -0.011347
O	      4.58324      2.55684      3.66734         0.015729     -0.011664     -0.003944
O	      1.67888      2.35701      3.76315         0.009571     -0.008921      0.008630
O	      5.86341      1.85515      1.20029         0.003495     -0.001346      0.010316
O	      3.12962      1.76279      1.15805         0.006793      0.000228      0.006987
