# total energy = -226.43543295 eV
 
CRYSTAL
PRIMVEC
5.985513 -0.049919 0.055023 
1.075823 7.677556 0.063230 
1.784400 2.504602 7.275235 
PRIMCOORD
36 1
Li	      1.17400      7.61148      0.11912        -0.002230     -0.001249      0.001913
Li	      2.88001      0.04218      0.01846        -0.012980      0.006694     -0.001634
Li	      5.66268      8.33866      2.48268        -0.000806     -0.003506      0.004562
Li	      2.79353      8.34867      2.55926         0.006071     -0.003275      0.004007
Li	      5.77956      5.15763      0.18692         0.005323     -0.002895      0.001938
Li	      5.81573      6.84768      4.84325         0.002377      0.009031      0.001081
Li	      4.32775      6.09215      2.47514        -0.000885      0.006250     -0.003025
Li	      3.19178      4.93435      7.28988        -0.008508      0.009782     -0.000884
Li	      1.58333      4.15744      4.93012         0.001003     -0.002031     -0.004758
Sc	      2.87403      3.33666      2.48504        -0.011394     -0.000473      0.007285
Mn	      2.84829      6.80437      4.90252         0.005669     -0.000636      0.000960
Mn	      7.17903      6.00620      2.49395         0.005048      0.005310      0.000913
V	      6.27720      4.96516      7.28644        -0.002678     -0.004996      0.018602
Cr	      4.50952      4.27831      4.92294        -0.002486      0.003908      0.003417
Fe	      2.78547      5.14593      0.03184         0.005643      0.004935     -0.009673
Co	      4.24838      9.33692      4.96071         0.002328     -0.002192     -0.010713
Co	      5.92299      3.32849      2.48307         0.003254     -0.008042     -0.000723
Cu	      7.21223      9.20785      4.92336        -0.005093     -0.002591     -0.004306
O	      5.83261      6.70987      1.39691        -0.001248     -0.006457      0.006615
O	      5.72675      8.59818      6.01990         0.009790      0.007336      0.003279
O	      3.06454      8.34050      6.13659        -0.006365      0.000705      0.003013
O	      7.26027      7.56625      3.71892        -0.007452      0.002693      0.011498
O	      4.18949      7.69794      3.87289         0.009726      0.002589     -0.005804
O	      2.64702      6.69019      1.30879         0.011411     -0.001371     -0.005782
O	      7.48926      5.87057      6.19116         0.003516     -0.001800     -0.002810
O	      4.63140      5.85547      6.18229         0.005098     -0.005655     -0.003581
O	      2.99880      5.13354      3.78173        -0.005954     -0.002622     -0.005854
O	      5.95387      4.99259      3.64034        -0.006411     -0.012844      0.004444
O	      4.26823      4.14837      1.08162         0.004439     -0.004331     -0.006024
O	      1.41707      4.23573      1.30437         0.006352      0.000608      0.007299
O	      3.17335      3.27602      5.98196         0.005978      0.009891     -0.002793
O	      6.01782      3.58041      6.12442        -0.003363     -0.004158     -0.003956
O	      4.42134      2.65105      3.71559         0.003621     -0.001216     -0.005154
O	      1.59837      2.40183      3.77730        -0.000760     -0.000428      0.002775
O	      5.76124      1.80401      1.10745        -0.011784      0.003726     -0.006941
O	      3.08083      1.76313      1.16957        -0.006248     -0.000688      0.000814
