# total energy = -226.47711449 eV
 
CRYSTAL
PRIMVEC
5.965588 0.017521 -0.010798 
1.157355 7.689818 0.012154 
1.725632 2.487564 7.258238 
PRIMCOORD
36 1
Li	      1.25920      7.62314      0.11015        -0.009589     -0.002131     -0.002610
Li	      2.83554      0.11939     -0.02279        -0.017095      0.003090      0.002326
Li	      5.67720      8.39210      2.40894         0.003180     -0.006432      0.008689
Li	      2.90730      8.35381      2.52131         0.003450     -0.001114     -0.000286
Li	      5.74183      5.21043      0.11377         0.003639     -0.003440     -0.000573
Li	      5.80573      6.87427      4.76591         0.001533      0.000046      0.001214
Li	      4.36150      6.14448      2.46210         0.009383     -0.000857     -0.008480
Li	      3.13913      4.88257      7.19619        -0.005656      0.022660     -0.004835
Li	      1.57863      4.18476      4.87206         0.000809      0.001954     -0.002598
Sc	      2.90164      3.33456      2.42059         0.018884      0.012596      0.001779
Mn	      7.29905      9.28527      4.85360         0.013135     -0.000664     -0.003595
Mn	      7.24716      6.04595      2.42405         0.011530      0.002869      0.011807
V	      6.24434      5.01297      7.20840        -0.011297      0.021403     -0.017185
Cr	      4.47284      4.30814      4.84257        -0.001872      0.010657     -0.006399
Fe	      2.75082      5.19432     -0.07016         0.005171     -0.003587     -0.005424
Co	      4.30501      9.35111      4.86402        -0.012755     -0.012627      0.000988
Co	      2.90698      6.77617      4.82635         0.005353     -0.007264      0.001046
Cu	      5.92458      3.41966      2.37986        -0.011186     -0.011111      0.000057
O	      5.91840      6.74152      1.37403        -0.014265      0.004884      0.000005
O	      5.74134      8.60301      6.00520         0.009731      0.011050     -0.002936
O	      2.99015      8.49596      6.06185         0.003715      0.003677     -0.006827
O	      7.32265      7.54319      3.60058        -0.004280     -0.010653      0.001433
O	      4.32270      7.76843      3.77509         0.004643      0.007455      0.005942
O	      2.67906      6.70966      1.28009         0.001911      0.000132     -0.001685
O	      7.37545      5.89074      6.12336         0.003591     -0.002612      0.002140
O	      4.50095      5.90142      6.06768        -0.006836      0.009164      0.011168
O	      2.97118      5.07222      3.62356         0.007931     -0.004399     -0.002197
O	      5.96415      5.02646      3.55140         0.006575      0.002862      0.006005
O	      4.18371      4.20270      0.94379         0.000054     -0.012809      0.004896
O	      1.38807      4.34743      1.31271        -0.005269     -0.005840      0.002266
O	      3.15318      3.31486      5.91913        -0.008406     -0.004386      0.002956
O	      5.97669      3.58758      6.03653        -0.002624     -0.010563     -0.001542
O	      4.52314      2.63401      3.67748         0.001467     -0.003596     -0.012567
O	      1.68882      2.37427      3.74785        -0.005070      0.000471      0.005052
O	      5.76528      1.88070      1.06931         0.004707     -0.005456      0.009904
O	      3.05724      1.78430      1.09763        -0.004194     -0.005430      0.000069
