# total energy = -226.14882172 eV
 
CRYSTAL
PRIMVEC
6.057916 -0.046899 0.094098 
1.093106 7.617634 -0.062221 
1.855561 2.360304 7.285263 
PRIMCOORD
36 1
Li	      1.17080      7.59884      0.07992        -0.007864     -0.001822      0.013650
Li	      4.77237      2.44706      7.27147        -0.022494      0.006422     -0.000321
Li	      5.81460      8.31607      2.38410        -0.010838     -0.004713     -0.014804
Li	      2.81925      8.22743      2.49754        -0.000682     -0.001861     -0.003325
Li	      5.77914      5.16324      0.10442        -0.010154      0.004797     -0.002010
Li	      5.92300      6.72101      4.78237         0.003347      0.004473      0.009576
Li	      4.38072      6.00587      2.39816        -0.001977     -0.001205     -0.007047
Li	      3.24331      4.76011      7.26273         0.007769      0.010185     -0.013506
Li	      1.65858      4.01897      4.91545         0.009607      0.001602      0.005940
Sc	      2.96514      3.28981      2.45831         0.002076     -0.001765      0.001353
Mn	      2.88391      6.62033      4.85702         0.009653     -0.017499      0.008473
Mn	      6.03249      3.29654      2.39691         0.000096      0.018430      0.011355
V	      6.32507      4.84795      7.22596        -0.004317      0.004702     -0.008641
Cr	      4.64593      4.12364      4.87578        -0.003125     -0.006570      0.006531
Fe	      4.63051      7.47827      7.25356         0.019927     -0.004518     -0.000399
Co	      4.32719      9.15308      4.85815         0.005356      0.021338      0.011460
Co	      7.24705      5.98626      2.43326         0.011480     -0.007544      0.015585
Cu	      7.37030      9.11041      4.91718        -0.012950      0.007196      0.008469
O	      5.91436      6.65472      1.36747         0.013964      0.002427      0.004966
O	      5.82808      8.41275      5.97718        -0.000838      0.002036     -0.012783
O	      3.07530      8.06839      6.15021        -0.008981      0.010671      0.016040
O	      7.38357      7.47646      3.74868        -0.007618     -0.003850     -0.003596
O	      4.24938      7.55120      3.82146         0.003315     -0.009063     -0.010388
O	      2.61835      6.64032      1.24018        -0.002605     -0.004402     -0.008751
O	      7.62507      5.66825      6.14973         0.004496      0.005038      0.008479
O	      4.75790      5.67385      6.14452        -0.010828      0.009328     -0.006614
O	      3.12300      4.98982      3.76819         0.002107      0.012875      0.012611
O	      6.06757      4.86935      3.55808         0.009389      0.005322      0.001020
O	      4.29175      4.18461      1.06734         0.007533     -0.001899     -0.005955
O	      1.43803      4.14117      1.30304        -0.002288      0.008188     -0.004683
O	      3.28830      3.13086      5.94391        -0.007837     -0.012436     -0.018695
O	      6.11902      3.31202      5.99852         0.010019     -0.013590     -0.003619
O	      4.62614      2.58732      3.54751         0.001208     -0.000430      0.003256
O	      1.70852      2.30405      3.77068        -0.005312     -0.015813     -0.002906
O	      5.88760      1.81830      1.17062        -0.010395     -0.020289     -0.009453
O	      3.14003      1.72941      1.12268         0.009761     -0.005763     -0.001268
