# total energy = -220.95666221 eV
 
CRYSTAL
PRIMVEC
5.955533 -0.012001 0.014958 
1.439391 7.600108 -0.037795 
1.596523 2.451051 7.211313 
PRIMCOORD
36 1
Li	      1.59946      7.53665      0.02300         0.015392      0.008812     -0.008666
Li	      4.42247      7.56143      0.03696         0.005529      0.000442      0.010100
Li	      4.39407      9.19052      4.88053         0.004949     -0.000193     -0.008299
Li	      2.93499      5.12191      0.07733        -0.000249      0.001508      0.003519
Li	      3.01604      6.72828      4.82641        -0.004796     -0.002819     -0.006869
Li	      1.54516      5.83921      2.35096        -0.003714      0.001012     -0.013222
Li	      7.46571      4.18660      4.75836         0.003660      0.001831     -0.001769
Li	      2.90337      3.39884      2.26291        -0.011133     -0.005232      0.006009
Li	      6.07364      3.36421      2.37032        -0.002123      0.000798     -0.001080
Sc	      5.95912      5.07961      0.05213         0.008836     -0.014442      0.008032
Mn	      3.01781      8.40188      2.36584         0.012410      0.000903     -0.003334
V	      4.37838      4.06427      4.72757        -0.021218     -0.007201     -0.000090
Cr	      6.09048      1.66849      4.84742         0.002566     -0.000514      0.006255
Fe	      5.96699      6.70360      4.79038         0.007147     -0.008030      0.002724
Co	      4.41794      2.50292      0.03547        -0.005576      0.005375      0.002716
Co	      4.45644      5.84781      2.38403        -0.012958     -0.007520     -0.005970
Cu	      3.06617      5.03953      7.20036        -0.002600      0.014914     -0.003556
Ni	      4.53129      0.80170      2.39072        -0.010596     -0.007635     -0.007155
O	      6.03932      8.35519      5.87540        -0.008314     -0.003373      0.002813
O	      2.94373      8.48772      5.97893        -0.006723      0.006357     -0.005855
O	      7.48253      7.63377      3.58416         0.002971      0.003366      0.009591
O	      4.44972      7.47813      3.48893        -0.002158     -0.003195      0.001846
O	      3.06027      6.75631      1.35671         0.003479      0.006114      0.005071
O	      5.83563      6.67421      1.30963         0.011565     -0.004051      0.006960
O	      7.34602      5.86542      5.91109        -0.016674      0.014025     -0.014406
O	      4.54508      5.73245      5.90285         0.000376      0.005096     -0.008888
O	      3.20193      4.96060      3.61345         0.010758      0.000959      0.016351
O	      5.79202      5.08381      3.60247         0.006386      0.014445      0.002682
O	      4.44301      4.23637      1.21552        -0.009254      0.004507     -0.002834
O	      1.47513      4.17273      1.10884         0.001481      0.005059     -0.001390
O	      3.13268      3.48796      5.88901        -0.007329     -0.014611      0.000739
O	      5.88230      3.41175      5.84521         0.003986      0.002443     -0.005422
O	      4.59344      2.55716      3.73135         0.002098     -0.011180     -0.002392
O	      1.51908      2.33955      3.56740        -0.001598      0.008023      0.000251
O	      6.11827      1.54908      1.24094         0.010218     -0.008828      0.006229
O	      3.01496      1.58921      1.32210         0.013202     -0.007168      0.009310
