# total energy = -226.79005886 eV
 
CRYSTAL
PRIMVEC
5.978211 -0.022475 0.047161 
1.108957 7.627017 0.009145 
1.783695 2.444895 7.260679 
PRIMCOORD
36 1
Li	      0.05232      0.03079      0.07569         0.003754     -0.005163     -0.004599
Li	      2.84682      0.10434     -0.02832         0.003463      0.005707      0.003475
Li	      5.72396      8.35669      2.39442        -0.008170     -0.009660      0.010009
Li	      2.81506      8.30537      2.48129         0.022298     -0.005899      0.008623
Li	      5.74042      5.13125      0.13490        -0.000595     -0.005028      0.006771
Li	      5.83345      6.77998      4.80489        -0.002971     -0.001441      0.001691
Li	      4.34549      6.01525      2.42988        -0.007088     -0.001616      0.005434
Li	      3.15341      4.81299      7.23448        -0.015401      0.008782     -0.001329
Li	      1.61639      4.08387      4.92574        -0.003266     -0.001460     -0.002933
Sc	      2.92430      3.30884      2.48097        -0.007157      0.006278      0.002815
Mn	      2.87916      6.69918      4.85809         0.007262      0.000962     -0.015241
Mn	      7.19035      5.97684      2.44822         0.003480      0.000742      0.000366
V	      6.22963      4.97304      7.22744        -0.016040     -0.007837     -0.004438
Cr	      4.56900      4.18550      4.90332        -0.004963      0.005475      0.006313
Fe	      2.77751      5.14550     -0.01191         0.002432     -0.006757     -0.014213
Co	      4.28875      9.22141      4.88818         0.008489      0.010239     -0.012883
Co	      7.27577      9.21291      4.90428         0.002479      0.012491      0.010658
Cu	      5.94194      3.30541      2.40386         0.002642      0.002084      0.000670
O	      5.88436      6.66433      1.39170         0.005804     -0.005996      0.007188
O	      5.74152      8.48703      5.98199        -0.006815      0.004453     -0.010773
O	      2.98857      8.29623      6.02526        -0.001458      0.005370      0.014721
O	      7.27120      7.45568      3.62229        -0.003659      0.002781      0.008594
O	      4.21715      7.58698      3.81793        -0.000874      0.001155     -0.005785
O	      2.62904      6.67159      1.27710        -0.001940      0.002354      0.003341
O	      7.49046      5.83556      6.12836        -0.000364     -0.000358      0.002634
O	      4.60156      5.78804      6.13057         0.009322     -0.002287     -0.001314
O	      3.02184      5.05677      3.74085         0.001305     -0.000855     -0.004570
O	      5.98728      4.92614      3.57828         0.009067      0.007033      0.001890
O	      4.19752      4.23025      1.05436         0.019462      0.000602     -0.012846
O	      1.40294      4.32133      1.35457         0.007552      0.000692     -0.010981
O	      3.20576      3.22422      5.95526        -0.004943      0.005776      0.001443
O	      6.05157      3.40904      6.03671         0.000679     -0.005012      0.004372
O	      4.52862      2.54171      3.70440        -0.009705     -0.001301      0.010285
O	      1.72058      2.32273      3.79818        -0.009105     -0.006645     -0.009176
O	      5.79958      1.84641      1.13860         0.003276     -0.019545     -0.009360
O	      3.06839      1.77002      1.13879        -0.008252      0.003883      0.009145
