# total energy = -220.82172202 eV
 
CRYSTAL
PRIMVEC
5.963750 -0.030921 0.033160 
1.416656 7.580117 -0.027528 
1.612301 2.447431 7.232276 
PRIMCOORD
36 1
Li	      1.57627      7.51842      0.03210         0.008527     -0.005645      0.007432
Li	      4.41852      7.53970      0.04900         0.013911     -0.004053      0.005626
Li	      4.39391      9.16453      4.90281        -0.002081      0.004513      0.002834
Li	      2.92031      5.10887      0.09922         0.006085      0.001811      0.001277
Li	      3.04092      6.73260      4.83027        -0.002184     -0.003171     -0.006056
Li	      1.52668      5.80523      2.34949        -0.001935      0.008644     -0.001372
Li	      7.46725      4.13365      4.79388        -0.005472      0.000204      0.003694
Li	      2.89014      3.41164      2.26343        -0.004950     -0.002351     -0.003118
Li	      6.08198      3.34317      2.41648         0.000753     -0.006400      0.005251
Sc	      5.95493      5.05150      0.09597         0.011384      0.011505     -0.017341
Mn	      3.00900      8.36769      2.40423         0.003874      0.017119      0.014237
V	      4.35769      4.05843      4.74853        -0.013993     -0.008323      0.001400
Cr	      6.10702      1.65207      4.88341        -0.001954      0.016832      0.005153
Fe	      5.95517      6.65752      4.83442        -0.005717     -0.006069      0.010289
Co	      1.45489      2.56176      0.03294         0.004677      0.001326      0.002305
Co	      4.45996      5.82887      2.41121        -0.000457      0.001868     -0.001991
Cu	      4.40951      2.48693      0.06198        -0.008278     -0.015261     -0.005777
Ni	      4.55320      0.80605      2.39736         0.008256      0.005550     -0.009705
O	      6.04046      8.30346      5.91515         0.008808     -0.019425     -0.011502
O	      2.92879      8.46683      6.00252        -0.003426     -0.015425      0.007844
O	      7.49036      7.58293      3.64936        -0.014957      0.007220      0.006203
O	      4.47392      7.46695      3.50735        -0.004981     -0.006263     -0.003060
O	      3.06664      6.73389      1.38874         0.016612     -0.015544     -0.014911
O	      5.81976      6.66703      1.32532        -0.003244     -0.002640      0.014895
O	      7.34952      5.76086      6.04662         0.002649      0.016614      0.000636
O	      4.47934      5.74317      5.82694         0.002007      0.015296     -0.008268
O	      3.18980      4.93095      3.61259         0.013385     -0.011822     -0.008301
O	      5.81221      5.06659      3.61822        -0.005935      0.014667      0.000464
O	      4.41492      4.20113      1.20646        -0.004561      0.007332      0.015450
O	      1.45755      4.20828      1.13477        -0.003677     -0.008994     -0.007884
O	      3.13438      3.43095      5.88087         0.006374      0.006277      0.002464
O	      5.87747      3.41618      5.88873        -0.008486     -0.001312      0.006258
O	      4.63048      2.54569      3.74875         0.000555     -0.002836     -0.007594
O	      1.53777      2.33259      3.58736        -0.001889      0.007124     -0.007345
O	      6.17821      1.47565      1.32882         0.006782     -0.005257     -0.003109
O	      3.00768      1.63083      1.26611        -0.016464     -0.003113      0.003623
