# total energy = -220.33827245 eV
 
CRYSTAL
PRIMVEC
5.935777 -0.011008 0.005223 
1.435753 7.650344 -0.010146 
1.579107 2.496476 7.228535 
PRIMCOORD
36 1
Li	      1.58117      7.58098      0.06565         0.003855      0.005977     -0.006493
Li	      4.38243      7.63300      0.06939        -0.005233      0.000572      0.003660
Li	      4.35136      9.26331      4.87693        -0.000780     -0.006137     -0.003064
Li	      2.92570      5.18879      0.06653        -0.004608      0.010800     -0.000829
Li	      2.99323      6.83254      4.80761        -0.000095     -0.004414     -0.001286
Li	      1.55302      5.97293      2.39673         0.001408      0.005017     -0.011494
Li	      7.43793      4.21028      4.75890         0.004993     -0.002950      0.000122
Li	      2.89390      3.38008      2.32256        -0.005313      0.006533      0.006473
Li	      6.06775      3.36479      2.39054         0.003814      0.003967      0.000747
Sc	      5.91636      5.14446      0.04274        -0.004854     -0.001639     -0.007138
Mn	      1.49602      2.55827      0.01365        -0.002935     -0.001359     -0.010885
V	      4.39175      4.10262      4.72584        -0.012457      0.011753      0.015639
Cr	      6.06715      1.69032      4.82896         0.002592     -0.016304      0.006963
Fe	      5.94052      6.77422      4.81381        -0.000047     -0.001039      0.005599
Co	      4.44101      2.48414      0.04843         0.000760      0.001897      0.004181
Co	      2.98354      8.47186      2.41644         0.002048     -0.023384     -0.009974
Cu	      4.42484      5.90899      2.37599        -0.006172      0.000900      0.002146
Ni	      4.49899      0.81962      2.37605         0.001055     -0.003253     -0.003291
O	      6.00744      8.41683      5.91433         0.004468     -0.006070      0.000751
O	      2.93132      8.55977      6.00872        -0.007186     -0.001131      0.009960
O	      7.42013      7.69814      3.61348        -0.007654      0.005294      0.006908
O	      4.45387      7.58038      3.55068         0.004874     -0.003427     -0.004842
O	      3.00415      6.87117      1.36428        -0.000893      0.005973     -0.003892
O	      5.89171      6.75722      1.28710        -0.003852     -0.001059     -0.002673
O	      7.36296      5.92209      5.96858        -0.000783      0.002055      0.007821
O	      4.50178      5.77774      5.94994         0.002021      0.004050     -0.001862
O	      3.15167      4.96253      3.68426         0.006442     -0.002795      0.010777
O	      5.80830      5.09021      3.69852         0.005033     -0.001455      0.000804
O	      4.40494      4.26569      1.18048         0.006325      0.001431     -0.000500
O	      1.46380      4.13680      1.06678         0.009216      0.010226      0.005751
O	      3.13373      3.53496      5.96842         0.001966      0.004387     -0.004548
O	      5.85963      3.43506      5.85924         0.004524      0.002272     -0.001166
O	      4.55044      2.59473      3.74189         0.003179     -0.012375     -0.015701
O	      1.49435      2.37546      3.56877        -0.003856      0.004620     -0.001161
O	      6.08161      1.61909      1.20525        -0.000712     -0.000411     -0.000254
O	      2.97350      1.63195      1.29916        -0.001145      0.001478      0.002750
