# total energy = -220.59351104 eV
 
CRYSTAL
PRIMVEC
5.955176 -0.045846 0.070048 
1.395546 7.580994 -0.009737 
1.647872 2.452688 7.222761 
PRIMCOORD
36 1
Li	      1.59599      7.48574      0.09355         0.019636     -0.004968      0.011620
Li	      4.40412      7.54042      0.11460         0.004864     -0.008895      0.008259
Li	      4.34764      9.16545      4.87986         0.001826      0.010668      0.001264
Li	      2.92349      5.13444      0.13310         0.010895     -0.014813     -0.009933
Li	      3.00487      6.75984      4.79632         0.006410     -0.002825     -0.001916
Li	      1.54333      5.88280      2.39551        -0.002095      0.003240     -0.003944
Li	      7.48092      4.11829      4.82027        -0.002760      0.005041     -0.002273
Li	      2.90448      3.34615      2.32116         0.000030     -0.001446      0.004796
Li	      6.10600      3.27921      2.44496         0.000390     -0.000725      0.004473
Sc	      5.89201      5.05672      0.11540         0.020996      0.014757     -0.007278
Mn	      1.49154      2.51880      0.02807        -0.012383     -0.011704      0.004962
V	      4.40027      4.05150      4.72698        -0.010230     -0.004417     -0.008150
Cr	      6.12109      1.64278      4.88743        -0.001854     -0.011323     -0.012748
Fe	      5.93165      6.69246      4.86022         0.010460      0.015078     -0.004522
Co	      3.02682      8.35146      2.43428        -0.023373     -0.005190      0.000004
Co	      4.44400      5.83241      2.44194        -0.008689      0.027638      0.006569
Cu	      4.41138      2.46991      0.08056         0.011213      0.000657      0.009434
Ni	      4.58065      0.79020      2.41078         0.004210      0.002717      0.004028
O	      6.02513      8.31075      5.97797         0.002116     -0.012430     -0.000300
O	      2.92474      8.48683      6.00230        -0.003504     -0.008154      0.018422
O	      7.43550      7.56887      3.69729        -0.012546     -0.003186     -0.005490
O	      4.47194      7.45394      3.54127        -0.005653     -0.001820      0.002862
O	      3.07443      6.73258      1.42254        -0.011392     -0.001208      0.000212
O	      5.84961      6.64109      1.37520        -0.004436     -0.006188     -0.007928
O	      7.32790      5.78642      6.04247        -0.001131     -0.002534      0.012753
O	      4.41437      5.74585      5.89649         0.005327      0.000662     -0.007491
O	      3.17670      4.92253      3.64121         0.004124     -0.008050      0.002171
O	      5.77979      5.04794      3.67523        -0.001756     -0.006711      0.002187
O	      4.40968      4.20971      1.26935        -0.002371      0.001603     -0.000657
O	      1.44721      4.10965      1.07080        -0.000281     -0.000713     -0.006913
O	      3.14756      3.46908      5.94781         0.012711      0.011230     -0.009974
O	      5.87159      3.41821      5.87711         0.001288      0.004935     -0.002403
O	      4.60548      2.52810      3.76998        -0.010873      0.011591      0.017695
O	      1.54349      2.35116      3.57402        -0.001311     -0.001492     -0.000172
O	      6.24473      1.49219      1.32713         0.005719      0.016284     -0.013938
O	      3.08894      1.63340      1.28910        -0.005575     -0.007312     -0.005678
