# total energy = -220.68333167 eV
 
CRYSTAL
PRIMVEC
5.941389 0.011976 -0.045902 
1.467198 7.658460 -0.013962 
1.528806 2.511053 7.238548 
PRIMCOORD
36 1
Li	      1.58435      7.60052      0.02691        -0.012438      0.008331     -0.006896
Li	      4.41899      7.64246      0.01242        -0.014192      0.003915      0.009523
Li	      4.37500      9.28550      4.90792         0.000054     -0.007428     -0.009825
Li	      2.92822      5.17914      0.06804        -0.009493      0.014969     -0.004755
Li	      3.00182      6.81192      4.85460         0.007561     -0.000332     -0.004565
Li	      1.53952      5.88267      2.35637         0.003571      0.022452      0.001582
Li	      7.41212      4.25747      4.72522         0.011643     -0.009099     -0.002540
Li	      2.90010      3.46306      2.26216         0.000063     -0.008462      0.005445
Li	      6.04995      3.44979      2.35527         0.006376      0.003041     -0.004882
Sc	      5.97692      5.15082      0.02298        -0.012479      0.004688      0.004573
Mn	      1.51109      0.84391      2.40844         0.002026     -0.022238     -0.012576
V	      4.32794      4.11075      4.74459         0.011834      0.013693     -0.002490
Cr	      6.03167      1.71622      4.80987        -0.015495     -0.010339      0.005231
Fe	      5.94799      6.76702      4.79592         0.003099     -0.012924      0.007484
Co	      4.45977      2.50650      0.00470        -0.001661      0.014788      0.002916
Co	      1.48940      2.61543      0.01232         0.007543      0.004426     -0.010222
Cu	      4.44958      5.91935      2.35209        -0.009671     -0.009000      0.000038
Ni	      4.47211      0.84568      2.35067        -0.003388     -0.005869     -0.007856
O	      6.01233      8.43891      5.85663         0.003943     -0.003816     -0.009592
O	      2.92282      8.56399      6.02180         0.004453      0.001020      0.005192
O	      7.45404      7.74092      3.57022         0.000326     -0.001923      0.015520
O	      4.44703      7.62674      3.51579        -0.005174     -0.001334      0.004872
O	      3.00558      6.88507      1.33559        -0.012117      0.022998     -0.002755
O	      5.86323      6.80383      1.23595         0.014558     -0.012329     -0.005141
O	      7.37571      5.93655      5.95136        -0.004070      0.009428     -0.008374
O	      4.54469      5.79602      5.89198         0.000835     -0.009300     -0.010022
O	      3.15780      5.00021      3.66006        -0.000959     -0.002111      0.014048
O	      5.83086      5.13889      3.63530         0.010160      0.006355      0.008642
O	      4.42756      4.27090      1.13805        -0.004410     -0.009401     -0.002988
O	      1.48062      4.25741      1.15135         0.009152      0.006109      0.008910
O	      3.10389      3.50182      5.88872        -0.001439     -0.011670      0.007783
O	      5.84494      3.45501      5.84933         0.018214     -0.005052     -0.001715
O	      4.55715      2.63222      3.69980        -0.010154     -0.006177     -0.003398
O	      1.47018      2.36661      3.57978        -0.001016      0.013296      0.009612
O	      6.02816      1.60674      1.20207        -0.000299     -0.003695      0.002325
O	      2.91283      1.65760      1.26932         0.003042      0.002989     -0.003106
