# total energy = -220.65831307 eV
 
CRYSTAL
PRIMVEC
5.906641 0.052145 -0.078912 
1.509770 7.667946 -0.017949 
1.495979 2.525377 7.211765 
PRIMCOORD
36 1
Li	      1.72103      7.61865      0.03890        -0.003411      0.010251     -0.013208
Li	      4.40306      7.66773      0.01613         0.001006     -0.003472      0.001810
Li	      4.32727      9.29878      4.83279         0.003889     -0.004477     -0.004909
Li	      2.96616      5.23540      0.08509         0.001934      0.007203     -0.002994
Li	      2.99804      6.87250      4.78274         0.001473     -0.005646      0.012021
Li	      1.65345      6.06386      2.43957        -0.009431      0.008481     -0.004187
Li	      7.36995      4.22068      4.61573         0.003905      0.000545     -0.011868
Li	      2.89954      3.44797      2.25240         0.011315      0.013524     -0.010479
Li	      6.06569      3.44433      2.27960         0.009327     -0.003830      0.000086
Sc	      5.97639      5.24123      0.03537        -0.013862      0.004165      0.017226
Mn	      4.45989      2.58935     -0.02384         0.005240     -0.001664     -0.012736
V	      4.34578      4.11418      4.64511        -0.010686      0.005567      0.015090
Cr	      5.96359      1.71864      4.74306        -0.004393      0.003097      0.008241
Fe	      5.88789      6.86136      4.74167        -0.006090     -0.003212     -0.007034
Co	      3.00893      5.11170      7.16518        -0.006352     -0.016124     -0.011053
Co	      4.44598      5.97259      2.36450        -0.003362      0.000767      0.006301
Cu	      1.49436      0.84812      2.39809        -0.000558     -0.001764      0.003556
Ni	      4.41755      0.85729      2.33081        -0.005363      0.010980     -0.005907
O	      5.98431      8.48924      5.87116         0.000866     -0.007691     -0.005205
O	      2.92761      8.58472      6.01538         0.007502     -0.000218     -0.003423
O	      7.29722      7.67939      3.63560        -0.004022     -0.001782      0.002525
O	      4.49105      7.57494      3.51267        -0.005507      0.013428      0.003994
O	      3.08443      6.86256      1.32712         0.003067     -0.011151     -0.000216
O	      5.84850      6.81428      1.29712         0.007159     -0.008288     -0.001991
O	      7.35725      5.92874      6.02724        -0.000201      0.005257      0.007811
O	      4.48334      5.82001      5.95670        -0.000561      0.006870     -0.015476
O	      3.16464      5.08492      3.59204        -0.015124      0.002063     -0.004785
O	      5.72599      5.15242      3.63408         0.018898     -0.003077      0.003152
O	      4.46991      4.39032      1.20726        -0.001845     -0.004720      0.001660
O	      1.51941      4.11314      1.06208         0.006957      0.006583      0.004082
O	      3.08428      3.61913      5.88607        -0.013419     -0.006896      0.008078
O	      5.80251      3.47655      5.71041         0.002356     -0.003525      0.011520
O	      4.42768      2.61384      3.63950         0.003632     -0.014018     -0.000752
O	      1.40606      2.39312      3.58628         0.012030      0.007950     -0.000490
O	      5.95834      1.75055      0.97662         0.001481     -0.006377      0.009488
O	      3.04066      1.80938      1.00399         0.002152      0.001201      0.000073
