# total energy = -220.82411349 eV
 
CRYSTAL
PRIMVEC
5.887910 0.016871 -0.039814 
1.459025 7.723545 0.122083 
1.523908 2.661528 7.288284 
PRIMCOORD
36 1
Li	      1.59946      7.71338      0.14096        -0.005148      0.007748     -0.009285
Li	      2.91413      0.05640      0.06614         0.000951     -0.005417      0.006151
Li	      4.34135      9.44072      5.01565         0.002274      0.000970     -0.000945
Li	      2.88932      5.25534      0.14649         0.004077      0.012432      0.003891
Li	      2.98868      6.96347      4.94752         0.002840     -0.002301     -0.001292
Li	      1.52288      5.97063      2.48043        -0.009594      0.001498     -0.000153
Li	      7.38687      4.40962      4.82283         0.001539      0.005565     -0.001641
Li	      2.85446      3.46892      2.36581        -0.001925     -0.001089      0.002557
Li	      6.01841      3.47148      2.40020         0.000971      0.002696      0.005387
Sc	      5.92985      5.19707      0.11281        -0.008441      0.006022     -0.000095
Mn	      4.38700      6.05470      2.48606        -0.001788      0.005300     -0.004528
V	      4.36041      4.17020      4.83717         0.007212     -0.002154     -0.001309
Cr	      5.98407      1.78352      4.78611         0.007152     -0.002737     -0.003387
Fe	      5.90320      6.93703      4.93111        -0.003251     -0.000005     -0.001025
Co	      1.49693      2.64144      0.08674         0.003834     -0.007598     -0.001043
Co	      1.49159      0.89304      2.43909         0.004768     -0.001752     -0.015521
Cu	      4.42476      2.54466      0.08684        -0.001103      0.008424      0.012487
Ni	      4.43522      0.88373      2.34864        -0.004785      0.002039     -0.003137
O	      5.95121      8.59115      6.00112        -0.001713     -0.006974     -0.000524
O	      2.91631      8.74101      6.17565         0.004460      0.001420      0.000048
O	      7.37699      7.85973      3.72606         0.008305     -0.003598      0.001013
O	      4.42161      7.69098      3.64746         0.002300      0.001806      0.000350
O	      3.01158      6.96810      1.51602        -0.000922     -0.003752      0.009474
O	      5.75935      6.84577      1.39270         0.000248      0.007633      0.001882
O	      7.29445      6.08419      6.13309        -0.007027     -0.000541      0.002017
O	      4.55948      5.89914      6.05106        -0.011153      0.001422      0.001295
O	      3.15638      5.18130      3.75850        -0.010411     -0.004975      0.001935
O	      5.75275      5.29831      3.71381         0.002051      0.001302      0.002002
O	      4.37891      4.54135      1.38256         0.000136     -0.007541     -0.003046
O	      1.46892      4.31363      1.24062         0.007966      0.004800      0.009707
O	      3.09620      3.61482      5.94890        -0.000948     -0.000916     -0.000939
O	      5.82807      3.51464      5.79810         0.000387     -0.004210     -0.004205
O	      4.48414      2.73582      3.71671         0.000141     -0.013572     -0.000768
O	      1.46670      2.41703      3.56873         0.001727     -0.006808     -0.005602
O	      5.91604      1.64844      1.16761         0.006835      0.005616     -0.001325
O	      2.93281      1.71767      1.26366        -0.001967     -0.000753     -0.000423
