# total energy = -218.03965827 eV
 
CRYSTAL
PRIMVEC
5.966984 -0.020476 0.021524 
1.431057 7.618789 -0.022703 
1.604039 2.468805 7.240149 
PRIMCOORD
36 1
Li	      1.62324      7.60211     -0.00830         0.010804     -0.005093      0.004768
Li	      4.43923      7.57883      0.07126         0.006529      0.003506      0.001036
Li	      4.39455      9.20098      4.89561        -0.001789     -0.000677     -0.009912
Li	      2.94259      5.11450      0.07642         0.001711     -0.000655      0.003146
Li	      3.01932      6.75851      4.82433         0.001143      0.002875     -0.001887
Li	      1.53435      5.84686      2.37790        -0.003565      0.003566     -0.001414
Li	      7.47836      4.19631      4.78913         0.000135      0.008207     -0.005330
Li	      2.92203      3.38749      2.26034        -0.008880     -0.000770      0.007614
Li	      6.07736      3.33575      2.37622         0.004958      0.002529     -0.002564
Sc	      5.98092      5.05739      0.04464         0.012490     -0.005819      0.010309
Mn	      1.59313      0.82395      2.44038        -0.002223      0.001504      0.003357
V	      4.38759      4.07475      4.77221        -0.003832     -0.000196     -0.007158
Cr	      6.08951      1.68077      4.88349         0.007078     -0.012853      0.000194
Fe	      5.95062      6.75889      4.82682        -0.019735      0.014069     -0.014264
Co	      4.45643      5.83311      2.39942         0.002094      0.008143      0.006114
Cu	      4.46540      2.49563      0.05781        -0.013189     -0.004582      0.003143
Cu	      1.49418      2.57397      0.00421        -0.002030     -0.000932      0.007044
Ni	      4.53816      0.79854      2.40705         0.003664      0.009649      0.004411
O	      6.05264      8.39416      5.97068         0.000442      0.001282      0.004628
O	      2.93051      8.54442      6.02642        -0.008107      0.000379      0.007879
O	      7.43170      7.65241      3.66207        -0.002499      0.000135     -0.001037
O	      4.50704      7.59322      3.61944         0.010560     -0.005055      0.002132
O	      3.06782      6.76462      1.42197         0.009257     -0.002169     -0.002675
O	      5.83078      6.65098      1.35538        -0.001393     -0.011442     -0.008613
O	      7.34485      5.88664      5.92899        -0.005713     -0.009701      0.008507
O	      4.50411      5.76252      5.90602        -0.009052      0.006138     -0.001106
O	      3.19535      4.96130      3.61810         0.006262      0.001524      0.000229
O	      5.77540      5.09604      3.62814        -0.003763     -0.001121      0.002147
O	      4.46229      4.16531      1.19287         0.005395     -0.001488     -0.003908
O	      1.48537      4.17058      1.10936        -0.013027      0.008448     -0.014715
O	      3.12713      3.49969      5.92375        -0.004749     -0.006309      0.002062
O	      5.88153      3.44276      5.85595        -0.001818      0.001740      0.004526
O	      4.59339      2.57501      3.76472         0.000573     -0.015337     -0.000190
O	      1.48985      2.36966      3.57974        -0.000529      0.012286     -0.000158
O	      6.10530      1.55793      1.21717         0.005637      0.000638      0.001699
O	      3.06981      1.60636      1.29056         0.017162     -0.002420     -0.010015
