# total energy = -220.83791365 eV
 
CRYSTAL
PRIMVEC
5.993763 -0.096561 0.122362 
1.340942 7.627639 -0.034768 
1.702728 2.424022 7.244911 
PRIMCOORD
36 1
Li	      1.45529      7.60631     -0.00488        -0.021027      0.007326     -0.012763
Li	      4.36562      7.52761      0.15486        -0.008028     -0.009933      0.001055
Li	      4.38863      9.10124      4.87869         0.003592      0.010930      0.011968
Li	      2.96447      5.12712      0.19054        -0.005097      0.004370     -0.016110
Li	      3.03760      6.76385      4.79975         0.004347     -0.007628     -0.001743
Li	      1.47702      5.94152      2.35891         0.008738     -0.004390     -0.016059
Li	      1.57520      4.19254      4.74464         0.011105      0.009695      0.001288
Li	      2.86794      3.36210      2.33225         0.015903      0.001646      0.010192
Li	      6.06243      3.27169      2.44511         0.010004     -0.006158     -0.002080
Sc	      5.91270      5.06087      0.12750        -0.006134      0.013824      0.005548
Mn	      1.42222      2.53491      0.01498         0.008036     -0.010664     -0.007431
V	      4.47719      3.96425      4.77671        -0.003328      0.006931      0.012338
Cr	      6.18305      1.57984      4.93711         0.003726     -0.014297     -0.013672
Fe	      6.01842      6.63200      4.91956        -0.003096      0.000674      0.009840
Co	      4.41253      2.47377      0.09221         0.000135     -0.022072      0.006671
Co	      4.48749      5.82416      2.50737        -0.014942      0.010479      0.009332
Cu	      2.96206      8.39090      2.44693        -0.008393     -0.003264     -0.006298
Ni	      4.58378      0.74934      2.46063        -0.016973     -0.014166     -0.008808
O	      6.08347      8.28229      6.04165         0.008077     -0.012191     -0.002923
O	      2.91950      8.53704      5.96669         0.003780     -0.001871     -0.000391
O	      7.48861      7.58558      3.67341         0.001061     -0.006215     -0.010361
O	      4.64891      7.34718      3.70850         0.003057      0.010098      0.001321
O	      3.09012      6.73576      1.50876        -0.003126     -0.003488      0.008975
O	      5.86252      6.64825      1.39912        -0.008947     -0.006469     -0.011690
O	      7.47701      5.80126      6.01840         0.011554      0.007056     -0.003091
O	      4.60715      5.63221      6.07029         0.001318     -0.006483     -0.013329
O	      3.27084      4.90335      3.72661        -0.006905      0.009488      0.013117
O	      5.83737      4.96740      3.70286        -0.001578      0.003979      0.005836
O	      4.40710      4.24106      1.30868        -0.004533      0.000342      0.007548
O	      1.42160      4.14344      1.04899        -0.011832      0.009286      0.000069
O	      3.18587      3.43270      5.97615         0.008718      0.010531      0.005214
O	      5.93655      3.33400      5.89553         0.016766     -0.000017     -0.011521
O	      4.62758      2.44077      3.81832         0.006287      0.012475      0.008899
O	      1.52298      2.36033      3.52632        -0.000177     -0.005931      0.009466
O	      5.90798      1.63686      1.10422        -0.011059      0.003269      0.007543
O	      2.96713      1.55875      1.35467         0.008972      0.002839      0.002049
