# total energy = -217.72151942 eV
 
CRYSTAL
PRIMVEC
6.010178 -0.007680 0.004591 
1.457930 7.597909 -0.088527 
1.599907 2.405718 7.223126 
PRIMCOORD
36 1
Li	      1.65048      7.54239     -0.02532         0.015383     -0.003432     -0.002330
Li	      4.47417      7.57468     -0.03400         0.015608     -0.000413      0.005360
Li	      4.41170      9.16535      4.81090        -0.005432     -0.000591     -0.001368
Li	      2.95681      5.12317      0.00269         0.000508      0.004036     -0.005470
Li	      3.04572      6.73680      4.72515        -0.012575     -0.002354      0.000614
Li	      1.55538      5.88188      2.33266         0.005208      0.000908     -0.001468
Li	      7.50218      4.13344      4.73727        -0.006756      0.001514     -0.004682
Li	      2.92093      3.36574      2.23553         0.002259     -0.001201     -0.006275
Li	      6.16338      3.33604      2.37721         0.011408     -0.004090      0.000596
Sc	      6.04876      5.08321     -0.00287         0.019223      0.012529     -0.014752
Mn	      4.49169      2.48117      0.00243        -0.002974     -0.005415      0.008174
V	      4.36695      4.05701      4.69674         0.002777     -0.012412     -0.012972
Cr	      6.12343      1.62226      4.85940         0.011154      0.007172      0.009508
Fe	      5.97900      6.70352      4.74028        -0.003426     -0.002946      0.005654
Co	      1.59272      0.80940      2.39196         0.010952      0.003891      0.001291
Cu	      1.51320      2.56224     -0.00045         0.004644      0.011479      0.003023
Cu	      4.49832      5.84247      2.31173         0.001312      0.004674      0.004595
Ni	      4.58960      0.79284      2.40783         0.011110     -0.004662      0.015007
O	      6.09915      8.33061      5.89399        -0.005565     -0.005088     -0.010816
O	      2.96040      8.42656      5.93455        -0.001650      0.001787      0.000217
O	      7.43320      7.55632      3.62898        -0.001348      0.003587     -0.018235
O	      4.51741      7.52928      3.47722        -0.000452      0.003714      0.001099
O	      3.06799      6.80402      1.31219        -0.001963      0.004143     -0.000671
O	      5.96585      6.68996      1.23062         0.009335     -0.000251      0.010909
O	      7.32814      5.77791      5.94925        -0.018007      0.004084     -0.018874
O	      4.51473      5.71865      5.85036        -0.000950     -0.003228      0.001726
O	      3.16027      4.87847      3.62131         0.006078     -0.004632     -0.005411
O	      5.83272      5.00783      3.63197        -0.005264      0.004687      0.005516
O	      4.50957      4.12817      1.10286        -0.018114     -0.011609      0.006071
O	      1.50337      4.17087      1.08678         0.004809      0.002324      0.006531
O	      3.17531      3.43667      5.91464        -0.012483     -0.017349      0.004191
O	      5.93416      3.39070      5.87630        -0.008853      0.007240      0.001290
O	      4.62823      2.52774      3.75245        -0.019948      0.008089      0.004358
O	      1.49551      2.29574      3.57679        -0.003020     -0.009315     -0.001869
O	      6.19663      1.57142      1.22034         0.004794     -0.003840      0.006798
O	      3.21242      1.65924      1.20402        -0.007785      0.006968      0.002665
