# total energy = -217.85807518 eV
 
CRYSTAL
PRIMVEC
5.961698 -0.014279 0.010731 
1.437873 7.629574 -0.039690 
1.591878 2.459586 7.241713 
PRIMCOORD
36 1
Li	      1.58378      7.56837      0.01554         0.012547      0.014261     -0.010429
Li	      4.41249      7.59750      0.02283         0.002228      0.007403      0.008936
Li	      4.39207      9.22028      4.89709         0.007297     -0.001815     -0.007974
Li	      2.93339      5.13933      0.05951        -0.002965      0.002601     -0.000902
Li	      3.01106      6.75478      4.83969         0.000410     -0.008563     -0.007699
Li	      1.53515      5.87614      2.35436        -0.006607      0.000098     -0.025279
Li	      7.46309      4.20076      4.78137         0.001740     -0.008041     -0.002473
Li	      2.90198      3.40531      2.26578        -0.009388      0.002174      0.005967
Li	      6.08432      3.37514      2.38378         0.000240      0.004307      0.007477
Sc	      5.97344      5.09239      0.02756         0.004482     -0.015110      0.017874
Mn	      1.56767      0.82351      2.41553         0.004181      0.009389     -0.004193
V	      4.36616      4.07531      4.76185        -0.020673     -0.006938      0.006608
Cr	      6.08823      1.67210      4.86777         0.006810      0.007353     -0.000628
Fe	      5.96787      6.72395      4.80983        -0.015543      0.005978     -0.017569
Co	      4.44391      2.47743      0.02926        -0.006451     -0.001011     -0.004060
Cu	      1.47911      2.59815     -0.00822         0.001155      0.008823      0.002823
Cu	      4.45952      5.86074      2.36605        -0.007997     -0.008892     -0.006809
Ni	      4.52941      0.80516      2.40231         0.007618     -0.016870      0.007758
O	      6.04487      8.37863      5.89895        -0.016305      0.004019      0.010624
O	      2.94000      8.51010      5.99136        -0.001651      0.003050     -0.000217
O	      7.47229      7.66921      3.59838        -0.002325      0.002954      0.006920
O	      4.45273      7.56546      3.53000        -0.002780     -0.004411     -0.007877
O	      3.01592      6.82569      1.33325         0.005760     -0.006243     -0.012823
O	      5.89923      6.72463      1.26758        -0.006095     -0.001923     -0.004419
O	      7.35844      5.88530      5.93128        -0.000106      0.003776      0.006438
O	      4.54574      5.74177      5.91804         0.003467      0.007262      0.006580
O	      3.17223      4.93307      3.67042         0.011310     -0.009555      0.022539
O	      5.83350      5.07599      3.65873        -0.000030      0.000453     -0.004027
O	      4.42964      4.21611      1.15344        -0.001914      0.010447     -0.007525
O	      1.47129      4.18809      1.10715         0.006077      0.005147     -0.003626
O	      3.14253      3.48538      5.94570        -0.001561     -0.007084      0.002471
O	      5.88902      3.41171      5.88511         0.001445      0.003797     -0.002557
O	      4.59559      2.57251      3.75991         0.004053     -0.010293      0.001849
O	      1.50653      2.35197      3.58252         0.000244      0.001597      0.000893
O	      6.11086      1.57248      1.24570         0.011837      0.001502      0.004033
O	      3.01654      1.60179      1.32967         0.009495      0.000361      0.011297
