# total energy = -217.89841045 eV
 
CRYSTAL
PRIMVEC
5.960177 -0.006588 -0.013110 
1.447887 7.659804 -0.023355 
1.565938 2.491946 7.240698 
PRIMCOORD
36 1
Li	      1.60861      7.59524      0.04062        -0.000375      0.001407     -0.003331
Li	      4.40211      7.63533      0.03680        -0.004556      0.001267      0.005730
Li	      4.34957      9.26629      4.86997        -0.003327     -0.007372     -0.009674
Li	      2.95174      5.20355      0.06499        -0.003851      0.009126     -0.003598
Li	      3.00245      6.83823      4.78898         0.001123     -0.001592      0.009654
Li	      1.58236      6.00870      2.39627         0.001258      0.010090      0.002834
Li	      7.45498      4.18439      4.74065        -0.001311     -0.006073     -0.005783
Li	      2.92009      3.40783      2.29669        -0.004743     -0.002687      0.001532
Li	      6.07526      3.38000      2.37063         0.007426     -0.003447     -0.004633
Sc	      5.95437      5.15717      0.02875         0.012929     -0.000048      0.011525
Mn	      1.49883      2.56249     -0.00590        -0.014701      0.017601      0.018557
V	      4.39889      4.09300      4.71781         0.017727     -0.007090     -0.001513
Cr	      6.06608      1.67945      4.82866         0.009146      0.015691     -0.008554
Fe	      5.95260      6.78212      4.80214         0.009867     -0.003857      0.001741
Co	      4.46373      2.50511      0.00338        -0.001125     -0.006969      0.017936
Cu	      1.54191      0.84616      2.41292        -0.008759      0.003232      0.004296
Cu	      4.45158      5.91683      2.36565        -0.001203      0.010166     -0.016082
Ni	      4.50507      0.81904      2.37099         0.000753      0.004112      0.003026
O	      6.03143      8.42325      5.93096        -0.002139      0.001683     -0.011598
O	      2.92342      8.55796      6.00812        -0.002264     -0.003916      0.003910
O	      7.37037      7.65831      3.65523        -0.004604     -0.001577      0.000063
O	      4.53195      7.55379      3.58222         0.006858     -0.003499      0.004228
O	      3.03534      6.84852      1.33125        -0.006757      0.000587      0.000343
O	      5.92334      6.76749      1.27750         0.001317     -0.007797     -0.001726
O	      7.38708      5.90135      5.99304         0.005133      0.005783     -0.007224
O	      4.51349      5.77007      5.96691         0.005440     -0.001603     -0.015700
O	      3.16075      4.96941      3.68392        -0.011095      0.006165      0.006446
O	      5.80400      5.07172      3.69854         0.015411      0.002415      0.013826
O	      4.44873      4.28718      1.19240        -0.000613     -0.011468     -0.000280
O	      1.47989      4.12790      1.05905         0.002241     -0.007787     -0.010179
O	      3.13462      3.53430      5.97340        -0.003539      0.006553     -0.003921
O	      5.86335      3.42892      5.83664        -0.009600      0.001041     -0.007285
O	      4.53497      2.57969      3.73911         0.004336     -0.005336      0.002466
O	      1.45567      2.40018      3.60439        -0.006992     -0.010618      0.005283
O	      6.00721      1.67587      1.10732        -0.001135     -0.008612      0.006801
O	      3.06832      1.70355      1.19069        -0.008277      0.004433     -0.009117
