# total energy = -102.22040200 eV
 
CRYSTAL
PRIMVEC
0.000064 2.116892 2.116613 
3.954677 0.000180 -0.000066 
-0.000088 9.132221 -9.131466 
PRIMCOORD
16 1
Li	      0.00072      0.33150     -0.29580         0.002363     -0.018492      0.013958
Li	      1.97611      2.23149     -0.04812         0.000980     -0.002398     -0.003953
Li	      0.00024      1.98556     -1.94987         0.001564      0.013994     -0.022588
Li	      1.97388      6.77264     -4.64098        -0.002519     -0.002565      0.000083
Ti	      1.98960      4.49701     -2.36703         0.030489     -0.146747      0.174812
Ti	      1.99248      9.04812     -6.91656         0.035433      0.184430     -0.153575
Ni	      3.95101      6.81113     -2.58349         0.002216      0.014664     -0.020879
Ni	      3.95122      8.83174     -4.60379        -0.000130     -0.026486      0.019069
O	      3.95122      6.76155     -4.65331        -0.003748      0.007150      0.001177
O	      1.97192      9.05779     -4.84761        -0.000921      0.050885     -0.044607
O	      3.94858      4.66957     -2.56673        -0.029419     -0.069573      0.087603
O	      1.97212      6.56776     -2.35684        -0.001176     -0.043777      0.047613
O	      3.95272      2.21664     -0.06554        -0.001186     -0.002314      0.000399
O	      1.97385      4.69244     -0.46061         0.000099      0.127680     -0.161736
O	      3.94818      8.84825     -6.74536        -0.034258      0.087609     -0.069549
O	      1.97374     10.95519     -6.72251         0.000212     -0.174060      0.132171
