# total energy = -218.25884706 eV
 
CRYSTAL
PRIMVEC
5.889225 0.028722 -0.044034 
1.475270 7.689652 0.080007 
1.523854 2.613053 7.275359 
PRIMCOORD
36 1
Li	      1.64139      7.69309      0.09735        -0.004426      0.009930     -0.011816
Li	      2.91059      0.03780      0.04197         0.002855     -0.003062      0.002200
Li	      4.32188      9.34755      4.94193         0.000821     -0.002951     -0.003702
Li	      2.94083      5.22348      0.12322        -0.002123      0.009501     -0.001609
Li	      2.99041      6.91190      4.90863         0.002980      0.002567      0.002785
Li	      1.57596      6.08946      2.56106        -0.004733      0.005597     -0.005384
Li	      1.48811      4.26147      4.78680        -0.001848     -0.002716     -0.014750
Li	      2.88001      3.44423      2.32356        -0.002363      0.004612     -0.002909
Li	      6.03772      3.41934      2.34461         0.007010     -0.000800      0.000338
Sc	      5.96473      5.18633      0.08377         0.001985     -0.002109      0.009162
Mn	      4.40561      6.01881      2.46371        -0.011383     -0.009494      0.012504
V	      4.36076      4.15057      4.80638         0.004547      0.011204      0.004662
Cr	      5.96330      1.75292      4.78777         0.007013     -0.001790     -0.001825
Fe	      5.90240      6.89332      4.92091        -0.008791     -0.000780      0.005496
Co	      1.49640      2.57990     -0.00178         0.008497     -0.010364      0.009805
Cu	      4.43930      2.57311      0.03643        -0.004444      0.002435      0.002607
Cu	      1.50212      0.91217      2.41344         0.003453     -0.004100      0.009234
Ni	      4.42675      0.89876      2.34441         0.001171      0.005349      0.001730
O	      5.96758      8.53062      6.02566         0.001603     -0.012977      0.003194
O	      2.92514      8.69550      6.14182         0.001222      0.000115      0.009305
O	      7.28712      7.75179      3.75162        -0.000492     -0.003718     -0.004813
O	      4.50280      7.63577      3.66610         0.000826      0.012269     -0.004534
O	      3.04900      6.87947      1.45668         0.003820      0.000150     -0.001546
O	      5.81633      6.82045      1.39130         0.005329      0.000338      0.001580
O	      7.39916      6.01573      6.13457        -0.007183      0.002195     -0.001059
O	      4.45838      5.85871      6.03716         0.004046      0.002817     -0.005011
O	      3.14365      5.13705      3.69215        -0.001084     -0.001588     -0.004723
O	      5.73433      5.22304      3.73697         0.008380      0.001932      0.008181
O	      4.44069      4.50057      1.37012         0.000185      0.000215     -0.001797
O	      1.51541      4.12761      1.10262        -0.001613     -0.007679     -0.010876
O	      3.07529      3.66143      5.99723        -0.017907     -0.005390      0.015368
O	      5.78979      3.48418      5.78053        -0.005835      0.008625      0.003693
O	      4.42379      2.67641      3.72226         0.000806     -0.022996     -0.014552
O	      1.42404      2.46010      3.62187        -0.001625      0.004116     -0.000880
O	      5.94913      1.75210      1.06687         0.005460      0.002182     -0.004430
O	      2.95974      1.78906      1.08424         0.003839      0.006364     -0.005630
