# total energy = -217.94925055 eV
 
CRYSTAL
PRIMVEC
5.958586 0.000432 -0.008464 
1.455846 7.584556 -0.019858 
1.573484 2.470235 7.232814 
PRIMCOORD
36 1
Li	      1.60705      7.54844      0.02193         0.017962     -0.014351      0.017504
Li	      4.42304      7.58027      0.00287         0.008748     -0.002011      0.005326
Li	      4.35941      9.18914      4.88558        -0.009280     -0.002073      0.008806
Li	      2.95226      5.13377      0.06822        -0.004450     -0.004453     -0.003893
Li	      2.98732      6.75185      4.81920        -0.006393     -0.003975      0.003173
Li	      1.57491      5.90065      2.41834        -0.001572     -0.002816     -0.009979
Li	      7.43718      4.14969      4.76504         0.001646      0.009485     -0.002390
Li	      2.92824      3.41271      2.25223         0.004621      0.001645     -0.013428
Li	      6.10638      3.34300      2.36634         0.003171      0.003693     -0.007085
Sc	      5.99742      5.08471      0.05974         0.019802     -0.005553     -0.002645
Mn	      1.59440      0.83145      2.42169        -0.003831     -0.024775     -0.005402
V	      4.34855      4.07977      4.73282        -0.017274      0.017633      0.007445
Cr	      6.04562      1.67088      4.85598         0.014306     -0.016458      0.016197
Fe	      5.87787      6.74439      4.78892        -0.005342      0.009331     -0.005900
Co	      3.08080      5.01719      7.21032         0.001030     -0.001506     -0.006805
Cu	      4.46564      2.51473      0.01661        -0.003197     -0.002529     -0.008202
Cu	      4.46634      5.83995      2.35627         0.001858      0.007398     -0.003729
Ni	      4.54104      0.84504      2.35089         0.002522      0.012781      0.002169
O	      6.03804      8.31839      5.95800        -0.001070      0.003460      0.004521
O	      2.92630      8.47355      6.00883        -0.003906      0.010936     -0.006763
O	      7.36579      7.57618      3.69128         0.001281      0.002584     -0.006862
O	      4.51043      7.62203      3.56897        -0.004228      0.010435      0.001419
O	      3.05570      6.77490      1.33414         0.004733      0.007214      0.016659
O	      5.92576      6.72729      1.27293        -0.003708     -0.001217      0.010798
O	      7.47458      5.74789      6.12706        -0.006346     -0.010032      0.001330
O	      4.39025      5.76566      5.85689         0.010427      0.001291      0.005991
O	      3.13974      4.91119      3.63026        -0.003861      0.000114     -0.018080
O	      5.81384      5.06280      3.70124        -0.005584     -0.000679     -0.000842
O	      4.48375      4.12542      1.16394         0.001115     -0.021035      0.000157
O	      1.51325      4.09767      1.07576        -0.004412     -0.005074      0.004775
O	      3.12857      3.49409      5.96342         0.001131     -0.001682      0.003119
O	      5.84734      3.43323      5.85456        -0.000012      0.004939      0.010018
O	      4.54931      2.56265      3.73363        -0.004500     -0.011080     -0.014369
O	      1.46236      2.36276      3.60918         0.000077      0.026291      0.007655
O	      6.21989      1.59305      1.20806        -0.008927      0.004126     -0.000469
O	      3.01784      1.76698      1.06832         0.003462     -0.002057     -0.010217
