# total energy = -220.12304974 eV
 
CRYSTAL
PRIMVEC
5.922618 -0.020870 0.027092 
1.419517 7.660455 0.021165 
1.597782 2.521844 7.230348 
PRIMCOORD
36 1
Li	      1.59626      7.56466      0.12707         0.015267     -0.003859      0.008232
Li	      4.34922      7.63188      0.09904         0.005377     -0.006400      0.005461
Li	      4.34361      9.29776      4.90042        -0.004258      0.004093     -0.005874
Li	      2.89661      5.18375      0.07140         0.002968      0.004040      0.008940
Li	      3.00258      6.89680      4.84115        -0.005966      0.003353      0.004502
Li	      1.54851      6.01977      2.43800         0.003109      0.002045      0.018950
Li	      7.41096      4.22295      4.79700         0.002786      0.015297     -0.011573
Li	      2.86716      3.35801      2.31853         0.005705     -0.004298     -0.002159
Li	      6.07225      3.32064      2.40536         0.005638     -0.010694     -0.008658
Sc	      5.90246      5.13757      0.10984        -0.007650      0.007664      0.006862
Mn	      4.41691      2.46597      0.03429         0.000252      0.016744      0.010027
V	      4.34428      4.16774      4.70372        -0.016399     -0.004301     -0.021470
Cr	      6.07554      1.72449      4.88497        -0.008338     -0.013477     -0.008125
Fe	      5.87093      6.86092      4.81770         0.009128      0.008497     -0.015005
Co	      1.48443      2.55561      0.00313        -0.008227     -0.022485     -0.015350
Co	      3.00114      8.48619      2.45850         0.004573     -0.012432      0.007044
Cu	      4.40457      5.92640      2.39853         0.004742      0.000580     -0.003024
Ni	      4.51820      0.80237      2.39227        -0.015399      0.005847      0.020616
O	      6.01336      8.44388      6.00920         0.011214      0.006983      0.004285
O	      2.93163      8.58078      6.04864         0.004858      0.008670     -0.003570
O	      7.40147      7.73532      3.69824         0.000654      0.014697     -0.002487
O	      4.47273      7.74504      3.67264        -0.009366      0.011224     -0.002929
O	      3.01609      6.86968      1.41621        -0.003039     -0.002282      0.010988
O	      5.91394      6.74971      1.33250         0.012535     -0.009111     -0.001991
O	      7.30140      5.90446      6.03086        -0.007112     -0.007884      0.003274
O	      4.42501      5.82584      5.92820         0.003738     -0.008946     -0.004358
O	      3.09542      4.95666      3.67199         0.011968     -0.009394      0.015400
O	      5.76428      5.13412      3.73003         0.000531     -0.000073      0.005136
O	      4.43422      4.02182      1.12711        -0.002886     -0.017481     -0.019431
O	      1.47514      4.09177      1.05624        -0.002790      0.003284      0.005542
O	      3.13920      3.58642      6.01212         0.006548      0.011296     -0.001779
O	      5.86486      3.48046      5.92644        -0.003034      0.003296     -0.003341
O	      4.56108      2.62846      3.79175        -0.002095      0.016371      0.011788
O	      1.49273      2.40953      3.57987        -0.002384     -0.009037     -0.005199
O	      6.15452      1.58181      1.24788         0.000575     -0.009381     -0.004009
O	      3.02066      1.64184      1.25061        -0.013222      0.007554     -0.006720
