# total energy = -223.12231612 eV
 
CRYSTAL
PRIMVEC
5.904311 0.001994 0.037996 
1.342388 7.721106 0.029175 
1.683552 2.584753 7.257483 
PRIMCOORD
36 1
Li	      3.08948      1.70948      4.93079         0.000335     -0.005874      0.002994
Li	      5.89353      1.81101      4.71189        -0.005845      0.003208     -0.001981
Li	      4.52540      0.88920      2.46955        -0.003063      0.008129      0.004233
Li	      5.90895      5.18356      0.09202        -0.001138      0.005229      0.003566
Li	      2.98146      6.75925      4.91467        -0.005700     -0.003690      0.001966
Li	      4.34977      5.83986      2.56034        -0.008382      0.003336     -0.003188
Li	      1.43623      2.56975     -0.02123         0.008981     -0.003913      0.002103
Li	      4.45270      4.25210      4.69936        -0.000854      0.013130     -0.003599
Li	      2.98858      3.49549      2.52482         0.002259     -0.004820      0.008072
Sc	      4.42994      2.56235      0.10967         0.014333      0.000942     -0.008924
Mn	      5.97834      6.94809      4.88353         0.010053      0.001007      0.006564
Mn	      1.56194      4.26436      4.80424        -0.002449      0.003782      0.003829
V	      2.96708      8.54787      2.54583         0.015887     -0.004360     -0.002297
Cr	      2.85180      5.15143      0.12302        -0.014998      0.012704      0.014510
Fe	      6.04914     10.25299      7.22781         0.007272      0.000307      0.008174
Co	      5.88952      3.47618      2.43402         0.007666      0.009170     -0.009906
Cu	      3.07319     10.26386      7.26130         0.006987      0.002228      0.009077
Ni	      1.44043      6.01348      2.45951         0.003471     -0.003395     -0.010009
O	      5.95300      8.53427      6.11700         0.000201     -0.008852     -0.006977
O	      3.16897      8.63917      6.30309         0.004978     -0.007619      0.002156
O	      7.33556      7.75068      3.66589        -0.006784      0.001530      0.000978
O	      4.22091      7.93363      3.62864        -0.011637      0.014195     -0.007287
O	      3.08347      6.82584      1.37186        -0.001086     -0.000310      0.002758
O	      5.91552      6.97699      1.09286         0.006058     -0.002945     -0.005410
O	      7.49819      5.87042      6.06095        -0.011090     -0.013663     -0.005276
O	      4.64791      6.19301      6.14406         0.004120     -0.010275     -0.006456
O	      2.85513      5.08799      3.74194        -0.006540     -0.000122     -0.003968
O	      5.87473      5.35093      3.72959        -0.006152     -0.000743     -0.004736
O	      4.44180      4.25813      1.25452        -0.003559      0.002357     -0.000984
O	      1.39564      4.31493      1.29171        -0.000047      0.001727      0.002106
O	      3.09146      3.28086      6.13116         0.005901     -0.009224      0.007936
O	      5.95038      3.51948      5.96750        -0.003738      0.002845     -0.003785
O	      4.61429      2.68544      3.44305        -0.004974      0.000250      0.002374
O	      1.39016      2.61934      3.47111        -0.006458      0.003081      0.001240
O	      6.00931      1.54628      1.21113         0.004723     -0.007640     -0.006192
O	      2.89056      1.57589      1.17209         0.001267     -0.001709      0.006338
