# total energy = -103.49950650 eV
 
CRYSTAL
PRIMVEC
0.000901 2.109767 2.110283 
6.096255 -0.031279 -2.076524 
-2.089295 6.335773 -4.228468 
PRIMCOORD
16 1
Li	     -1.99335      6.30395     -4.18846        -0.007973      0.016183     -0.010195
Li	      2.02643      2.09643      0.01327         0.000327      0.001033      0.000386
Li	      3.95586      2.11626     -2.12287         0.009421     -0.015346      0.011260
Li	      4.02955      4.19463     -4.19364         0.000256     -0.000050     -0.000391
Ti	     -0.08908      4.16570      0.03451        -0.181452     -0.149193      0.157644
Ti	      2.05278      6.36444     -4.23521         0.180129      0.150092     -0.159452
Ni	      2.08617      4.17933     -2.07554         0.086909      0.046703     -0.034602
Ni	     -0.12264      6.35099     -2.12524        -0.087211     -0.046854      0.033892
O	      4.12785      4.18716     -2.08194         0.323371      0.005213     -0.009125
O	      4.06553      1.96787      0.15170         0.020271     -0.140163      0.143037
O	      1.97958      6.36119     -2.13873         0.104185      0.076018     -0.101773
O	      1.91660      2.15209     -2.15783        -0.086584     -0.106062      0.104411
O	      3.93208      6.31183     -4.19537        -0.324671     -0.005845      0.008452
O	      0.04607      6.26848     -4.15327         0.086876      0.105558     -0.105608
O	     -0.01605      4.16911     -2.06211        -0.103068     -0.077913      0.101660
O	     -0.01266      2.22642     -0.12416        -0.020785      0.140624     -0.139597
