# total energy = -223.06446082 eV
 
CRYSTAL
PRIMVEC
5.908544 -0.008296 0.011373 
1.329483 7.715022 0.021848 
1.647058 2.580431 7.222571 
PRIMCOORD
36 1
Li	      3.08696      1.73177      4.87777        -0.001182      0.000761     -0.000154
Li	      5.90088      1.80093      4.69461        -0.000266      0.001910      0.000138
Li	      4.53702      0.89944      2.45563         0.001861     -0.001728      0.001921
Li	      5.88092      5.18063      0.05889        -0.006019      0.002375      0.003112
Li	      2.96676      6.76195      4.88780         0.007088      0.006700      0.007851
Li	      4.34988      5.87362      2.45284        -0.001744      0.001476      0.005716
Li	      1.46003      2.54832     -0.04488        -0.002591      0.004905      0.001902
Li	      4.37113      4.27291      4.65873        -0.000660      0.003448     -0.000997
Li	      2.98450      3.55252      2.57542         0.002302     -0.000204      0.004593
Sc	      4.41749      2.57279      0.08965         0.005233      0.019257      0.007887
Mn	      3.01573     10.24203      7.19338         0.012675      0.000099     -0.008154
Mn	      5.98720     10.22742      7.20603         0.004393     -0.026791      0.001085
V	      2.95686      8.55504      2.56691         0.006492     -0.006906      0.023081
Cr	      2.83559      5.10837      0.08985        -0.000938     -0.004442     -0.008171
Fe	      5.97405      6.86679      4.80806         0.004349     -0.006853      0.003071
Co	      5.89413      3.46232      2.42389         0.002088      0.006695     -0.002996
Cu	      1.52328      4.26096      4.77061         0.001341     -0.009411      0.002701
Ni	      1.41470      5.98001      2.47175         0.003738      0.000309      0.000143
O	      5.90652      8.54715      6.11382         0.000674      0.011534      0.001628
O	      3.11522      8.59388      6.22311         0.007374     -0.011286     -0.001764
O	      7.33759      7.74950      3.59475        -0.003011      0.000703     -0.006269
O	      4.25497      7.89179      3.59010        -0.017363      0.009650     -0.016678
O	      2.98396      6.85077      1.28463        -0.003188     -0.002055     -0.004029
O	      5.81947      6.95281      1.07132        -0.021161      0.001660     -0.002242
O	      7.37701      5.92668      5.93602         0.005724      0.001102     -0.001724
O	      4.58892      6.13179      6.10545        -0.000528     -0.001365     -0.004089
O	      2.81758      5.13894      3.68811         0.003577      0.001099     -0.004494
O	      5.77500      5.33985      3.61280        -0.005726      0.002372     -0.013142
O	      4.37952      4.25222      1.22013         0.001337     -0.009151      0.000911
O	      1.36122      4.30878      1.27381         0.000305     -0.008244      0.005111
O	      3.19696      3.26020      6.15147        -0.002836     -0.002906      0.004548
O	      5.97234      3.41758      6.02567         0.008986     -0.003431     -0.003442
O	      4.61134      2.67980      3.43610        -0.011318      0.000304     -0.004382
O	      1.42124      2.58048      3.47681         0.001025      0.005157     -0.007323
O	      6.02794      1.57658      1.17896         0.005618      0.006581      0.013475
O	      2.91774      1.50419      1.14464        -0.007649      0.006679      0.001173
