# total energy = -218.22940471 eV
 
CRYSTAL
PRIMVEC
5.967331 0.035401 -0.061045 
1.502770 7.648240 -0.017959 
1.527026 2.512115 7.204429 
PRIMCOORD
36 1
Li	      1.71174      7.58977      0.05188        -0.007202      0.005552     -0.010817
Li	      4.43864      7.62962      0.02790        -0.002303      0.003947     -0.002828
Li	      4.37372      9.26896      4.83267         0.000732     -0.003847     -0.004160
Li	      2.97447      5.19846      0.08666        -0.003179      0.008160     -0.003063
Li	      3.04763      6.84690      4.77344         0.001103     -0.000242      0.007121
Li	      1.64175      5.98022      2.39700        -0.003896      0.008583     -0.000342
Li	      7.45807      4.20875      4.64193        -0.003167     -0.004403     -0.003623
Li	      2.91477      3.44151      2.26292         0.000677      0.002794     -0.005231
Li	      6.10870      3.42911      2.30872         0.011270      0.001952      0.001476
Sc	      6.01488      5.20175      0.03892         0.005881      0.013213      0.007847
Mn	      4.47870      2.56186     -0.00797         0.000399     -0.015804      0.005169
V	      4.39242      4.09585      4.65453         0.005022     -0.006779      0.025972
Cr	      6.04519      1.70727      4.75302         0.005844     -0.004699      0.014459
Fe	      5.96640      6.81893      4.73847        -0.000056     -0.008673     -0.001122
Co	      4.48220      5.94465      2.36717         0.010367      0.018370     -0.001558
Cu	      1.50972      2.58068      0.00013         0.003405     -0.003006     -0.005373
Cu	      3.01888      8.48255      2.38796        -0.005561     -0.000043      0.005733
Ni	      5.98185      8.48818      2.31284        -0.005335     -0.007476      0.000401
O	      6.05592      8.46387      5.85524         0.002419     -0.004282     -0.002745
O	      2.94531      8.55597      5.99928        -0.004903     -0.007407     -0.000962
O	      7.39157      7.65737      3.62030         0.002627     -0.002223     -0.001630
O	      4.54737      7.54062      3.51658        -0.008705      0.009241     -0.007530
O	      3.10496      6.83892      1.33480         0.002872     -0.013278      0.000388
O	      5.87595      6.77196      1.29544        -0.003177     -0.007732     -0.002610
O	      7.35116      5.91301      5.98529         0.001829      0.007618      0.005023
O	      4.61192      5.82726      5.92341        -0.006716     -0.001445     -0.007076
O	      3.21125      5.06773      3.60583        -0.010857      0.000296     -0.002093
O	      5.78466      5.13114      3.60575         0.005076     -0.011572     -0.000171
O	      4.48839      4.36069      1.19951         0.003082     -0.003406     -0.001220
O	      1.50974      4.17395      1.11607        -0.004776      0.002882     -0.005965
O	      3.13549      3.58356      5.86596         0.003459      0.013071     -0.003057
O	      5.86576      3.46018      5.72490        -0.004687      0.001730      0.006097
O	      4.50840      2.60362      3.65232         0.001840     -0.005923     -0.007517
O	      1.43494      2.38859      3.57977         0.001027     -0.001882     -0.002485
O	      5.90074      1.69328      1.04479        -0.012022      0.006935      0.006351
O	      3.10583      1.75931      1.08555         0.017610      0.009779     -0.002857
