# total energy = -223.10011390 eV
 
CRYSTAL
PRIMVEC
5.903564 -0.016358 0.041208 
1.317556 7.744719 0.010915 
1.679211 2.571804 7.256385 
PRIMCOORD
36 1
Li	      3.15138      1.72679      4.88194        -0.004483     -0.005195      0.006913
Li	      5.92762      1.76621      4.72298        -0.001240      0.000593     -0.005744
Li	      4.49680      0.88368      2.49687        -0.000345      0.002783     -0.001533
Li	      5.87913      5.14414      0.07119         0.002580     -0.005526     -0.003925
Li	      2.92460      6.78759      4.85904        -0.000090      0.004330     -0.001323
Li	      4.30863      5.88982      2.55309         0.003371      0.004512     -0.004020
Li	      1.45685      2.55958     -0.05215         0.000234     -0.001825     -0.000093
Li	      4.29875      4.34998      4.63164         0.002697      0.002612     -0.000218
Li	      2.95922      3.55337      2.55329        -0.001476     -0.001529     -0.002572
Sc	      4.46312      2.59003      0.12875        -0.001674      0.002915      0.002429
Mn	      3.07775     10.23500      7.23753        -0.005926      0.003736     -0.001810
Mn	      5.96868      6.89917      4.87311         0.007901      0.007018      0.001726
V	      1.58515      0.89181      2.52496        -0.007437      0.002537     -0.001771
Cr	      2.82129      5.10133      0.08679        -0.008089     -0.009664     -0.000327
Fe	      6.04485     10.22919      7.23019         0.002808     -0.000283     -0.003756
Co	      5.88488      3.50734      2.49730         0.002028     -0.006816      0.001524
Cu	      1.59875      4.30340      4.81653         0.004256     -0.000190     -0.004966
Ni	      1.37736      6.00451      2.47989         0.001114      0.005184      0.006912
O	      5.92277      8.49130      6.10880         0.006297      0.000500      0.001215
O	      3.15033      8.62846      6.25207         0.005537     -0.004337     -0.000676
O	      7.28157      7.76498      3.64984        -0.002571      0.001456      0.004921
O	      4.15770      7.90400      3.53664        -0.002570     -0.001495      0.001518
O	      2.80297      6.90923      1.17273         0.004744      0.009936     -0.002302
O	      5.87832      6.94265      1.09987        -0.010245     -0.000346      0.006540
O	      7.50236      5.90659      6.09378        -0.001512      0.002643     -0.011240
O	      4.65425      6.10389      6.13855         0.004233     -0.011490     -0.007268
O	      2.81760      5.18351      3.66262         0.002481      0.004528      0.000448
O	      5.76619      5.35762      3.69697        -0.001921     -0.002133     -0.000141
O	      4.38566      4.28274      1.25784        -0.000243     -0.000995      0.000761
O	      1.35867      4.30970      1.27817        -0.007795     -0.005354      0.004479
O	      3.21740      3.23746      6.17175         0.005896     -0.005739      0.002640
O	      6.29116      3.28463      6.17704        -0.003280     -0.003488     -0.002235
O	      4.60776      2.70772      3.51265         0.007963      0.008504      0.001846
O	      1.38754      2.60058      3.43997        -0.005238      0.003965      0.007405
O	      6.01941      1.51689      1.20422         0.003562      0.005857      0.000633
O	      2.92735      1.55611      1.17759        -0.001567     -0.007204      0.004013
