# total energy = -223.53538440 eV
 
CRYSTAL
PRIMVEC
5.938115 -0.031319 0.030565 
1.306585 7.706302 0.011178 
1.669051 2.558306 7.215131 
PRIMCOORD
36 1
Li	      3.11446      1.69439      4.80578        -0.005935     -0.002612      0.006710
Li	      5.97434      1.67576      4.76747        -0.012909      0.008955     -0.011502
Li	      5.85601      8.51617      2.49029        -0.001194     -0.000571      0.000239
Li	      5.87165      5.17955      0.10682         0.007651     -0.008235     -0.004667
Li	      2.97767      6.79812      4.88609         0.007081      0.001232      0.004561
Li	      4.38816      5.92696      2.44291        -0.000216      0.001933      0.002768
Li	      1.41899      2.57230     -0.00087         0.001616      0.001165     -0.006745
Li	      4.45551      4.27105      4.72745        -0.000456     -0.000532     -0.000890
Li	      2.99302      3.48004      2.49376        -0.004630     -0.000110      0.000172
Sc	      4.38761      2.59968      0.08400        -0.003932      0.002745     -0.012941
Mn	      2.98423     10.21361      7.19133        -0.006070      0.005676     -0.008771
Mn	      1.60190      4.25757      4.78959         0.002321      0.008754     -0.007815
V	      2.89989      8.56463      2.55496        -0.002711      0.005715     -0.000152
Cr	      2.80866      5.11119      0.05701        -0.000424     -0.011259      0.004557
Fe	      6.02494     10.18000      7.21017         0.000701     -0.006504     -0.006156
Co	      5.90542      3.39707      2.47634         0.011870      0.000591     -0.002303
Cu	      5.98879      6.93991      4.86060         0.004369     -0.001771      0.007168
Ni	      1.43145      5.97018      2.45499        -0.000129      0.002536     -0.003416
O	      5.88312      8.58347      6.08491        -0.006176     -0.007940     -0.003884
O	      3.07021      8.56681      6.20113         0.010783     -0.006406      0.006058
O	      7.35350      7.68181      3.59717        -0.005748      0.002635     -0.002272
O	      4.19173      7.82401      3.47492         0.003348     -0.000275      0.004847
O	      2.91208      6.85691      1.24182        -0.002776      0.002283      0.009968
O	      5.83250      6.90410      1.14092        -0.000409     -0.002950      0.004034
O	      7.56277      5.69485      5.97951        -0.006241     -0.009145     -0.002541
O	      4.63621      6.11798      6.05705         0.008662      0.000553      0.009055
O	      2.86820      5.05658      3.70115        -0.005479      0.001096      0.005873
O	      6.08066      5.05489      3.76248         0.003341      0.000666     -0.000156
O	      4.35606      4.29000      1.18387         0.005232     -0.006241     -0.000151
O	      1.35364      4.27469      1.25801         0.001578      0.008461      0.005351
O	      2.95274      3.36562      5.93661        -0.000398     -0.002558      0.003652
O	      6.03544      3.41636      5.99727         0.004043      0.005960     -0.008931
O	      4.62592      2.63676      3.45219        -0.003914      0.001211      0.006239
O	      1.49460      2.57153      3.56196        -0.000761      0.005649     -0.000685
O	      6.01235      1.57354      1.22598        -0.001391     -0.000751     -0.002585
O	      2.87343      1.57611      1.11827        -0.000696      0.000044      0.005311
