# total energy = -223.32209254 eV
 
CRYSTAL
PRIMVEC
5.894534 0.042370 -0.056560 
1.392790 7.714903 0.021860 
1.582831 2.604343 7.197116 
PRIMCOORD
36 1
Li	      3.00470      1.75443      4.81678        -0.013826     -0.006675      0.013464
Li	      5.88062      1.83942      4.66139        -0.006173     -0.005306     -0.003395
Li	      4.46264      0.91514      2.41232         0.000351     -0.001074     -0.006791
Li	      5.89018      5.24113      0.03619        -0.004448     -0.002049     -0.004073
Li	      2.94250      6.88107      4.86640        -0.001858      0.000615      0.005069
Li	      4.40278      5.99047      2.35966         0.000818      0.002129      0.002847
Li	      1.44396      2.57410     -0.02403        -0.002337     -0.004226      0.002106
Li	      4.40915      4.26531      4.64233        -0.000541      0.000239     -0.002001
Li	      2.99594      3.54650      2.49049        -0.006483      0.005250      0.007927
Sc	      4.39560      2.55279      0.07014         0.012983     -0.013948     -0.001715
Mn	      5.94565      7.00262      4.77996         0.008279      0.014393      0.006408
Mn	      1.60280      4.32199      4.78474         0.004148     -0.006578      0.005462
V	      1.55770      0.88224      2.44806        -0.014337      0.004169     -0.011922
Cr	      2.87436      5.13394      0.05197         0.006416      0.020298     -0.003070
Fe	      2.94194     10.20341      7.15624         0.000357      0.001253     -0.001014
Co	      5.89200      3.50303      2.35045         0.003731     -0.007186      0.002506
Cu	      5.96186     10.28319      7.12093        -0.009035     -0.004068     -0.005158
Ni	      1.41991      6.00432      2.44670        -0.002110      0.009198     -0.004441
O	      5.85370      8.55541      6.00234        -0.001756     -0.001451     -0.004157
O	      3.06175      8.56426      6.13734         0.008386     -0.010486      0.005303
O	      7.31092      7.78947      3.57384        -0.006032     -0.003795     -0.002933
O	      4.21958      7.88045      3.48993         0.011257      0.002118      0.000281
O	      2.81046      6.88066      1.24898         0.007231      0.002723     -0.001869
O	      5.85137      6.94617      1.12221        -0.005054     -0.001681     -0.002770
O	      7.44764      5.86265      5.90620         0.005337     -0.001549      0.003450
O	      4.61761      6.18615      6.01502        -0.006005     -0.014649     -0.003485
O	      2.85839      5.14547      3.67574         0.007256      0.003899      0.005907
O	      5.99681      5.25968      3.72674         0.005411     -0.008373     -0.005346
O	      4.43013      4.28350      1.17152         0.005916      0.007160     -0.003006
O	      1.40478      4.29960      1.26108        -0.001012     -0.001230     -0.002529
O	      2.92691      3.43634      5.88929        -0.008773     -0.006030      0.003646
O	      6.12980      3.51871      5.89962        -0.004708      0.002353      0.004975
O	      4.61408      2.73463      3.38758         0.000933      0.016762     -0.000124
O	      1.43186      2.65824      3.50466         0.003450      0.004061      0.003041
O	      5.99818      1.64229      1.18003         0.000757     -0.003470     -0.003455
O	      2.85708      1.58750      1.12652         0.001470      0.007202      0.000862
