# total energy = -218.42452374 eV
 
CRYSTAL
PRIMVEC
5.986655 -0.013071 0.001098 
1.445177 7.623653 -0.020944 
1.587654 2.477577 7.236096 
PRIMCOORD
36 1
Li	      1.65340      7.60293      0.02580         0.011158      0.000752     -0.014141
Li	      4.43891      7.59271      0.05943        -0.000699      0.004183      0.007545
Li	      4.37396      9.21681      4.84770        -0.002855     -0.009775     -0.009172
Li	      2.95574      5.14031      0.05435        -0.002159      0.005744      0.000313
Li	      3.01968      6.76729      4.80550        -0.006141      0.009645      0.003223
Li	      1.54820      5.90461      2.39780        -0.002335      0.013386     -0.005752
Li	      7.50299      4.18489      4.74167        -0.000654      0.003578     -0.004245
Li	      2.88396      3.36397      2.30362        -0.008246     -0.002807      0.000273
Li	      6.12723      3.34489      2.37470         0.002043      0.000875     -0.001182
Sc	      6.03258      5.08334      0.01524        -0.000133     -0.001882      0.000380
Mn	      4.46000      5.87426      2.39133         0.018930     -0.001180     -0.017188
V	      4.41583      4.05077      4.78448         0.001996     -0.000399      0.005704
Cr	      6.10424      1.66685      4.82547        -0.000052     -0.016043     -0.020523
Fe	      5.99286      6.75210      4.82572         0.003917     -0.007170      0.002044
Co	      4.46823      2.49251      0.02426         0.005603      0.006025      0.005844
Cu	      1.49769      2.56599      0.03236         0.002167      0.004410      0.003680
Cu	      1.55300      0.85245      2.40181        -0.004690     -0.007848     -0.001138
Ni	      4.53541      0.82453      2.39382         0.013785     -0.010652      0.002887
O	      6.07364      8.39623      5.94175        -0.006029      0.008241     -0.002099
O	      2.94652      8.53906      6.00992         0.012336      0.005900      0.000913
O	      7.41191      7.62013      3.65462        -0.006172      0.000804      0.000219
O	      4.55047      7.47226      3.58070         0.003981     -0.004921      0.009352
O	      3.08524      6.75654      1.38689         0.003712     -0.000871     -0.007508
O	      5.85675      6.67443      1.33311        -0.016904     -0.004259      0.011656
O	      7.37453      5.88040      5.96788        -0.003171     -0.001221     -0.014455
O	      4.58286      5.73730      5.96489        -0.006343     -0.001839     -0.011376
O	      3.21269      4.99850      3.64587         0.006854     -0.007340      0.001887
O	      5.80001      5.08418      3.62530        -0.011665     -0.003210      0.012334
O	      4.47479      4.33330      1.25925        -0.004125      0.012412      0.016269
O	      1.49462      4.18361      1.11657         0.003051     -0.004271     -0.001826
O	      3.14079      3.50294      5.92217         0.003475     -0.005116     -0.002797
O	      5.89209      3.41758      5.81238        -0.005581      0.002253      0.007381
O	      4.56912      2.56656      3.74256        -0.009250      0.014136      0.009266
O	      1.47050      2.40027      3.59419         0.003470      0.006502      0.005999
O	      5.97721      1.65615      1.09987         0.010950     -0.002733      0.004342
O	      3.11683      1.66001      1.22067        -0.010223     -0.005308      0.001889
