# total energy = -217.83164933 eV
 
CRYSTAL
PRIMVEC
5.966688 -0.055338 0.079728 
1.385736 7.592194 -0.020580 
1.659409 2.442114 7.245271 
PRIMCOORD
36 1
Li	      1.56437      7.51968      0.07486         0.027026     -0.005939      0.006718
Li	      4.38669      7.55621      0.09441         0.016220     -0.000838      0.008063
Li	      4.36010      9.16666      4.87753         0.000264      0.004821     -0.003305
Li	      2.90722      5.13891      0.08019         0.005000     -0.000534      0.007142
Li	      3.02766      6.76701      4.78301        -0.005468     -0.005346      0.003913
Li	      1.51651      5.88382      2.37855         0.004404      0.001093     -0.007624
Li	      7.48268      4.11144      4.84751        -0.000357      0.010973      0.003888
Li	      2.89599      3.32524      2.34287         0.000285     -0.002236      0.000412
Li	      6.12322      3.26673      2.47128         0.004398     -0.002438     -0.006015
Sc	      5.91617      5.05464      0.09418         0.004621     -0.000622     -0.002726
Mn	      1.49619      2.51940      0.03308        -0.015819     -0.013807      0.000694
V	      4.40552      4.04716      4.75374        -0.018618     -0.000519      0.017514
Cr	      6.14714      1.63643      4.92783        -0.013826      0.009881     -0.005165
Fe	      5.92752      6.69528      4.85772        -0.009704      0.014867      0.009199
Co	      3.01379      8.36809      2.44277        -0.001790     -0.003807     -0.011682
Cu	      4.41294      2.47193      0.07924         0.001047     -0.003712     -0.000938
Cu	      4.43415      5.81903      2.40781        -0.007721     -0.002208     -0.019621
Ni	      4.59308      0.78580      2.42713        -0.008094      0.001442      0.001687
O	      6.05178      8.29935      6.01029         0.013566     -0.010055     -0.002647
O	      2.93374      8.48008      6.00465        -0.003148     -0.006724      0.004546
O	      7.44297      7.58132      3.71587        -0.009496      0.007662      0.011529
O	      4.48767      7.54239      3.60127        -0.008452      0.012741      0.002052
O	      3.02411      6.77060      1.39631         0.001116     -0.003131      0.003031
O	      5.90025      6.65732      1.33489         0.009710      0.003717      0.011368
O	      7.32234      5.77107      6.07802         0.003505     -0.003792     -0.012913
O	      4.40118      5.74544      5.89676        -0.008813     -0.001176     -0.011334
O	      3.15996      4.85678      3.67728        -0.013803      0.005713      0.003327
O	      5.82764      5.01570      3.73298         0.025831     -0.007168      0.004302
O	      4.42373      4.09435      1.21463        -0.005739     -0.003016     -0.009179
O	      1.44896      4.11920      1.06498         0.008422      0.000562      0.001319
O	      3.16888      3.45124      5.99574        -0.005011      0.006949     -0.002020
O	      5.88640      3.40501      5.93394        -0.002429     -0.002313     -0.003852
O	      4.63183      2.52015      3.80819         0.003282     -0.003858     -0.000891
O	      1.54491      2.35168      3.59342        -0.007609      0.004991      0.006554
O	      6.26749      1.49350      1.36014         0.012118     -0.004585      0.002859
O	      3.10237      1.62635      1.29021         0.005081      0.002410     -0.010207
