# total energy = -92.48367390 eV
 
CRYSTAL
PRIMVEC
2.001359 4.175951 2.018173 
4.080655 -2.106461 -2.058967 
-0.009036 4.247562 -4.169903 
PRIMCOORD
16 1
Li	      4.06312      4.21804     -0.14387         0.027426      0.000544      0.004347
Li	      4.03870      2.29432     -2.07306         0.009550      0.022762      0.006403
Li	      3.98577      0.09712     -4.11405        -0.011599      0.002988      0.018188
Li	      4.07737      4.18792     -4.08889        -0.004696     -0.009059     -0.019546
Mn	      6.03719      2.06396     -0.05440         0.000046      0.020198     -0.036466
Mn	      2.02875      2.06790     -0.08556        -0.040016     -0.018223     -0.038564
Ni	      2.03418      4.20230     -2.05897        -0.059875      0.054734      0.047149
Ni	      2.07933      2.05819     -4.10343         0.039033      0.098115      0.060841
O	      3.99937      4.26130     -2.09634         0.158663     -0.149072     -0.013996
O	      4.07733      2.14177     -4.33261         0.035241     -0.002974     -0.061227
O	      4.06662      2.06674      0.00875        -0.015448     -0.001876     -0.107068
O	      4.19818     -0.20526     -2.12598         0.025520     -0.037842      0.007278
O	      1.95050      3.99187      0.02756        -0.006405     -0.038204      0.120142
O	      2.04411      2.12357     -1.98877        -0.025864     -0.098032      0.132500
O	      2.04504      6.42255     -2.25926        -0.111160      0.089138     -0.022991
O	      1.90153      4.32678     -4.16279        -0.020416      0.066803     -0.096991
