# total energy = -223.17810639 eV
 
CRYSTAL
PRIMVEC
5.861390 0.068459 -0.066379 
1.418371 7.762699 0.050654 
1.572830 2.654700 7.244192 
PRIMCOORD
36 1
Li	      2.93568      1.78244      4.87686         0.006375      0.002057      0.001669
Li	      5.88176      1.90054      4.65394        -0.003791      0.002499     -0.001157
Li	      4.48807      0.97773      2.38917         0.000589     -0.001719      0.004175
Li	      5.88612      5.27226      0.00187         0.006340     -0.005625      0.001236
Li	      2.95124      6.82635      4.90764        -0.002771     -0.004765     -0.002079
Li	      4.30939      5.86634      2.55243         0.000178      0.002291     -0.015353
Li	      1.45076      2.65350      0.00061        -0.000107     -0.003669      0.001093
Li	      4.43178      4.31639      4.60302         0.008857     -0.003251      0.004059
Li	      2.96030      3.55569      2.51595         0.001419      0.003644     -0.006664
Sc	      4.38087      2.62892      0.01471        -0.007069      0.000866      0.019951
Mn	      5.95980     10.40108      7.17445        -0.010130      0.005588      0.001054
Mn	      1.51481      4.34045      4.80622         0.005715     -0.009180     -0.002482
V	      3.02169      8.56627      2.54934        -0.004743     -0.004041     -0.001114
Cr	      2.86273      5.22427      0.11052        -0.008168     -0.012126      0.003953
Fe	      5.93699      7.08581      4.81179        -0.001587     -0.009871     -0.001592
Co	      5.87138      3.53719      2.33772        -0.025380     -0.001643      0.000994
Cu	      3.01263     10.39170      7.26242         0.002612     -0.018693     -0.007438
Ni	      1.44409      6.05327      2.47264         0.005054      0.011370     -0.011495
O	      5.84751      8.71714      6.10638         0.010307     -0.001463     -0.000411
O	      3.06743      8.78511      6.27349         0.003266      0.010886      0.012825
O	      7.36660      7.88429      3.58635         0.000609      0.005793      0.000924
O	      4.33796      7.96990      3.63066        -0.003032      0.003959      0.001661
O	      3.03893      6.85662      1.43171        -0.005337      0.006553     -0.001599
O	      5.92730      7.08060      1.01063        -0.005075      0.007042     -0.003349
O	      7.30804      6.15203      5.95211         0.018626      0.002455     -0.005450
O	      4.51881      6.33514      6.11445         0.006040     -0.002454     -0.004537
O	      2.84285      5.14009      3.75551         0.005859      0.005060     -0.002110
O	      5.87102      5.42203      3.64875        -0.001940     -0.005993     -0.006435
O	      4.41394      4.31308      1.20286        -0.000341      0.002554      0.001310
O	      1.41235      4.34277      1.28880        -0.001435      0.003701     -0.002609
O	      2.95051      3.39553      6.08651        -0.002813     -0.002235      0.007161
O	      5.89857      3.70235      5.83288         0.001752     -0.004076     -0.006730
O	      4.59895      2.74991      3.35650         0.001406      0.005973      0.001936
O	      1.42003      2.58805      3.44180         0.001992      0.003719      0.010570
O	      5.98109      1.62547      1.10783        -0.003965      0.001792      0.000084
O	      2.87975      1.54774      1.09926         0.000686      0.003002      0.007950
