# total energy = -223.82215297 eV
 
CRYSTAL
PRIMVEC
5.901490 0.021066 -0.037465 
1.366199 7.720846 0.035049 
1.598766 2.610498 7.223277 
PRIMCOORD
36 1
Li	      3.07159      1.77369      4.81348         0.006016      0.000793      0.009129
Li	      5.95204      1.75447      4.75465         0.014236     -0.011277      0.009861
Li	      5.84684      8.59678      2.43667         0.000152     -0.001360      0.005513
Li	      5.84035      5.19771      0.01075        -0.005713      0.007075     -0.004077
Li	      2.92270      6.80908      4.84326         0.002338     -0.002872      0.003867
Li	      4.34952      5.89150      2.48767        -0.026714      0.000084     -0.005448
Li	      1.42477      2.61199      0.00798        -0.003954      0.002637      0.010796
Li	      4.39488      4.33761      4.65080         0.006829     -0.002300      0.009622
Li	      2.96004      3.51995      2.45806         0.005245      0.008508      0.005781
Sc	      4.38034      2.59831      0.07745         0.000232      0.002151      0.009083
Mn	      1.37822      7.66706      0.01155         0.013318     -0.007260      0.007462
Mn	      5.92801      6.97447      4.80037        -0.000945     -0.011767      0.025459
V	      1.60693      0.91726      2.51121         0.007613     -0.004975     -0.002262
Cr	      2.83616      5.14444      0.04194         0.018864      0.001199     -0.003928
Fe	      1.64380      4.33033      4.80346        -0.006069     -0.006419      0.009819
Co	      5.87320      3.50251      2.43845        -0.003396      0.009785      0.005148
Cu	      4.58565      2.59469      7.12585        -0.015506      0.004670      0.007000
Ni	      1.41105      6.01079      2.46091        -0.020036     -0.008037     -0.016030
O	      5.83444      8.52260      5.98942        -0.011380      0.010748     -0.001445
O	      3.03362      8.69978      6.21356         0.005593      0.005871     -0.005958
O	      7.32061      7.76578      3.58650        -0.001800      0.002670     -0.006679
O	      4.22668      7.79237      3.48214        -0.017240      0.013880     -0.005745
O	      2.75437      6.91285      1.17653        -0.010590     -0.004012     -0.005045
O	      5.89133      6.98811      1.06670         0.004980      0.001044     -0.012690
O	      7.42015      5.93269      5.99290        -0.005372      0.003216     -0.001468
O	      4.55874      6.16112      6.04762         0.002824     -0.000520     -0.007782
O	      2.89879      5.14705      3.65144         0.007893      0.000271     -0.006326
O	      5.94176      5.21465      3.69092         0.017870     -0.008763     -0.017716
O	      4.34346      4.32628      1.16237        -0.000847      0.014965      0.001428
O	      1.36054      4.30844      1.27804         0.000285      0.003046     -0.009453
O	      2.99622      3.38400      6.05584         0.007177     -0.009254      0.002119
O	      6.20382      3.42323      6.03535         0.000187      0.002957     -0.022876
O	      4.63022      2.72009      3.45050         0.010389     -0.001333      0.001725
O	      1.50369      2.55055      3.54006        -0.005897      0.003974     -0.000768
O	      5.98309      1.61377      1.17326         0.013651      0.000065      0.014848
O	      2.87259      1.67393      1.22244        -0.010231     -0.019459     -0.002965
