# total energy = -223.09560080 eV
 
CRYSTAL
PRIMVEC
5.866071 0.028008 -0.016451 
1.367146 7.787327 0.090838 
1.617433 2.682943 7.244665 
PRIMCOORD
36 1
Li	      2.99994      1.76675      4.88107         0.003504     -0.000365     -0.010142
Li	      5.85580      1.84831      4.71260        -0.007485      0.000009      0.004726
Li	      4.47780      0.96362      2.46075         0.001460     -0.005097     -0.001359
Li	      5.86676      5.25413      0.07752        -0.003225      0.005861      0.001577
Li	      2.94932      6.84703      4.91096        -0.006740     -0.000426     -0.002220
Li	      4.34368      5.91712      2.56302        -0.007454     -0.001769     -0.014113
Li	      1.43144      2.65054      0.03366        -0.007022     -0.002555     -0.002870
Li	      4.43081      4.32835      4.65176         0.004627     -0.005486      0.001428
Li	      2.97245      3.55661      2.51486        -0.002428     -0.004517      0.000176
Sc	      4.37336      2.60113      0.11063         0.006051      0.006258     -0.007543
Mn	      5.91378      7.07233      4.87364         0.008197      0.003070     -0.007236
Mn	      5.95438     10.44900      7.25495         0.007670      0.001488      0.000954
V	      1.59448      0.90612      2.50175        -0.000338     -0.002630      0.020274
Cr	      2.85678      5.21419      0.12186        -0.001153     -0.001244      0.006783
Fe	      1.57557      4.38911      4.82898        -0.008459     -0.003337      0.003319
Co	      5.86477      3.55680      2.42611         0.010420      0.005937     -0.023356
Cu	      2.99133     10.42820      7.29926         0.012485      0.004868      0.001078
Ni	      1.46303      6.10092      2.48593        -0.004598      0.004437      0.004939
O	      5.87436      8.63679      6.06536        -0.001371      0.009663      0.003374
O	      3.08246      8.80879      6.32054        -0.002298     -0.002598      0.001735
O	      7.30890      7.83894      3.63891        -0.003992      0.009657      0.011088
O	      4.21060      8.00736      3.64976         0.007077      0.001340     -0.005720
O	      3.11721      6.92221      1.34357        -0.006711     -0.004330      0.005690
O	      5.86617      7.07151      1.09282        -0.008560     -0.004640      0.002829
O	      7.41377      5.97971      6.04955         0.008112      0.003371      0.003431
O	      4.55336      6.33197      6.15363        -0.005872     -0.009569     -0.003971
O	      2.88656      5.18951      3.72436         0.004822      0.004047     -0.008529
O	      5.91066      5.38661      3.74121         0.002178      0.002233      0.003456
O	      4.44034      4.33047      1.23923         0.002521     -0.002708      0.007444
O	      1.40508      4.40472      1.33879         0.002271     -0.007238     -0.002844
O	      2.95765      3.39171      6.07445         0.003289     -0.000279      0.004408
O	      5.79107      3.62655      5.97378         0.000420     -0.002460      0.002009
O	      4.59606      2.75116      3.42131        -0.009235     -0.004427      0.009433
O	      1.38752      2.65170      3.50127         0.001903     -0.000390     -0.003392
O	      5.96175      1.56779      1.16761        -0.001090     -0.001978     -0.004701
O	      2.84898      1.70894      1.22665         0.001024      0.005805     -0.002157
