# total energy = -223.29267487 eV
 
CRYSTAL
PRIMVEC
5.959046 -0.034549 0.054539 
1.306788 7.677586 -0.057747 
1.702534 2.478723 7.234410 
PRIMCOORD
36 1
Li	      3.17788      1.67161      4.83738        -0.009103      0.000698      0.009533
Li	      6.02224      1.67994      4.76514        -0.012747      0.005368     -0.008024
Li	      5.85594      8.48220      2.41232        -0.003808     -0.004773     -0.007272
Li	      5.89932      5.14280      0.06840         0.001751     -0.001923     -0.007943
Li	      2.95748      6.74767      4.84892         0.000659      0.001868     -0.007559
Li	      4.41202      5.90970      2.36632         0.001825      0.000682      0.004630
Li	      1.46892      2.50043     -0.04179         0.004094     -0.002419     -0.009349
Li	      4.36529      4.28316      4.69211        -0.011253      0.002334      0.002181
Li	      2.98966      3.48217      2.51516        -0.002012      0.008199      0.000627
Sc	      4.49163      2.53903      0.12038         0.001453      0.004651      0.001034
Mn	      6.00572      6.78007      4.80243         0.014525     -0.006272     -0.007470
Mn	      6.06562     10.07001      7.14828        -0.005975     -0.010731      0.005382
V	      1.60450      0.85631      2.52903         0.009359      0.001694      0.003653
Cr	      2.82355      5.03605      0.03307        -0.002861      0.015431     -0.002466
Fe	      3.07334     10.04303      7.10246         0.008430     -0.003156      0.003562
Co	      5.91977      3.42404      2.51509        -0.007043     -0.006411      0.002104
Cu	      1.61235      4.15584      4.77888         0.001456      0.013708      0.005355
Ni	      1.39313      5.92292      2.42797         0.006304      0.008114      0.001419
O	      5.97094      8.34799      6.04715        -0.009447     -0.006370     -0.002370
O	      3.15232      8.37363      6.12816         0.002492     -0.000997      0.006030
O	      7.32602      7.65406      3.59293        -0.011400     -0.007946     -0.003526
O	      4.17565      7.78574      3.44983         0.013625     -0.000474      0.006512
O	      2.80205      6.81324      1.19637        -0.006596     -0.001172      0.006945
O	      5.79662      6.88685      1.05320        -0.004095      0.003535     -0.015755
O	      7.56931      5.66145      5.96228         0.001642     -0.011136     -0.001905
O	      4.72295      5.94959      6.05872        -0.000392      0.004084     -0.004559
O	      2.79732      5.05579      3.66729        -0.004311     -0.000071      0.007596
O	      5.79744      5.25738      3.59390        -0.005114     -0.005190     -0.012132
O	      4.34459      4.24128      1.17379         0.007574     -0.007994      0.003547
O	      1.33448      4.24438      1.22662         0.008479      0.011097      0.005073
O	      3.33895      3.16467      6.16624         0.008549     -0.007175      0.002728
O	      6.32380      3.26382      6.07036         0.012958     -0.000822      0.001783
O	      4.65696      2.64124      3.50148         0.003347      0.009556     -0.006277
O	      1.50565      2.57104      3.55428        -0.004681     -0.009726     -0.000543
O	      6.08713      1.59633      1.30246         0.003270     -0.000547      0.008721
O	      2.94893      1.52929      1.17882        -0.010953      0.004286      0.008738
