# total energy = -221.04752397 eV
 
CRYSTAL
PRIMVEC
5.909611 -0.005819 0.003954 
1.332795 7.701766 -0.000734 
1.639672 2.556810 7.224017 
PRIMCOORD
36 1
Li	      3.12277      1.75595      4.80626        -0.008756      0.002575      0.007267
Li	      5.99128      1.71585      4.75929        -0.009293      0.008027     -0.011501
Li	      5.85487      8.55606      2.43365        -0.002171      0.003459     -0.006299
Li	      5.86456      5.17203      0.04303        -0.003605      0.004256      0.003558
Li	      2.94388      6.79348      4.87034         0.008878      0.002412      0.004627
Li	      4.35660      5.91304      2.40397         0.002182      0.000052     -0.004688
Li	      1.47409      2.53288     -0.03371         0.003163      0.005619      0.005154
Li	      4.32463      4.33049      4.67848         0.006555     -0.006579      0.004510
Li	      2.95720      3.55484      2.53822        -0.002361      0.002804     -0.003273
Sc	      4.43028      2.58416      0.09910        -0.001567      0.000562     -0.008239
Mn	      5.98671     10.18608      7.18110        -0.004562      0.005047     -0.003648
V	      2.94102      8.57377      2.54600        -0.012652      0.005905     -0.002744
Cr	      2.81336      5.08027      0.04372         0.001727     -0.010826     -0.004846
Fe	      3.01353     10.16448      7.14075         0.007248     -0.001121      0.007914
Fe	      5.95916      6.84106      4.78019         0.008779     -0.004561      0.020961
Co	      5.87110      3.45841      2.48527        -0.011033      0.000049      0.001815
Cu	      1.56326      4.23213      4.78169         0.002706     -0.005454      0.006248
Ni	      1.39441      5.96708      2.44698        -0.001584      0.002574     -0.000165
O	      5.89624      8.49887      6.07261        -0.004586      0.012373     -0.005410
O	      3.07650      8.51497      6.14158        -0.000140     -0.005318     -0.000725
O	      7.32423      7.73695      3.57515        -0.004251      0.004831     -0.003649
O	      4.24138      7.82080      3.51921         0.006408     -0.012887      0.008477
O	      2.85958      6.86267      1.20086        -0.010270     -0.004506     -0.001403
O	      5.79082      6.92157      1.08178        -0.008829      0.007780     -0.006148
O	      7.36950      5.87578      5.89767         0.004514      0.007523      0.006328
O	      4.59212      6.06427      6.07089         0.002824      0.006716     -0.006192
O	      2.80260      5.13157      3.66705        -0.004227     -0.001394     -0.002957
O	      5.76848      5.29607      3.57490         0.001529     -0.007411     -0.006117
O	      4.31633      4.26808      1.17594         0.003087     -0.000700      0.020514
O	      1.34922      4.28475      1.25110         0.005128     -0.010084      0.000363
O	      3.23467      3.27426      6.13818         0.006395      0.001361     -0.004504
O	      6.11929      3.35441      6.06721         0.022165     -0.005909     -0.005165
O	      4.61228      2.67386      3.47538         0.002085      0.002465     -0.005883
O	      1.51012      2.55805      3.55257        -0.000864     -0.009392     -0.004288
O	      6.04693      1.63930      1.24212        -0.001372      0.008268      0.014790
O	      2.93309      1.51503      1.15108        -0.003250     -0.008515     -0.014682
