# total energy = -221.54452224 eV
 
CRYSTAL
PRIMVEC
5.882205 0.060963 -0.097222 
1.413904 7.734530 0.041998 
1.537480 2.642951 7.191110 
PRIMCOORD
36 1
Li	      3.01264      1.81865      4.77631        -0.000002      0.003295      0.011647
Li	      5.87891      1.83921      4.64546         0.011631     -0.003961      0.003251
Li	      4.46595      0.96979      2.39289         0.003818     -0.004463     -0.009403
Li	      5.86883      5.25425     -0.02386        -0.002537      0.005209      0.000708
Li	      2.93268      6.84138      4.82443         0.000763      0.000130      0.008590
Li	      4.34422      5.90018      2.48079        -0.002901     -0.007362     -0.001418
Li	      1.44309      2.64536      0.00444        -0.003514      0.001660      0.001524
Li	      4.39188      4.31671      4.56122         0.000162     -0.006607      0.004931
Li	      2.97802      3.55868      2.47085         0.000131     -0.006516      0.007144
Sc	      4.35416      2.61963      0.04417        -0.001836     -0.017361      0.000533
Mn	      2.95244     10.32804      7.20547         0.019406      0.011864      0.005103
V	      2.99712      8.62319      2.52319         0.010890      0.002135     -0.006668
Cr	      2.85793      5.17016      0.04054        -0.000365      0.013395      0.008622
Fe	      5.93562      7.04459      4.75260        -0.007830      0.007295     -0.002981
Fe	      1.59060      4.36069      4.75522        -0.010162      0.005403      0.003120
Co	      5.87268      3.52397      2.32982         0.004479      0.007804     -0.003703
Cu	      5.91130     10.36345      7.10244        -0.005642     -0.001374      0.005672
Ni	      1.40287      6.02467      2.44904        -0.011260     -0.006026     -0.011198
O	      5.80515      8.62160      5.98309         0.000728     -0.003439      0.001945
O	      3.01291      8.75640      6.17510        -0.006311     -0.006890     -0.014177
O	      7.35382      7.83949      3.52778        -0.000382     -0.003668      0.014281
O	      4.29085      7.83443      3.50286         0.010820      0.003067      0.013373
O	      2.77331      6.92154      1.20459        -0.006452     -0.007813      0.001262
O	      5.92563      7.03251      1.01498        -0.014396      0.000985     -0.004850
O	      7.29759      6.07542      5.87662         0.005344     -0.000844      0.006074
O	      4.49776      6.22810      6.02331        -0.011477      0.003096     -0.010110
O	      2.87604      5.18135      3.64672         0.013914      0.002041      0.001826
O	      5.90237      5.30549      3.63287        -0.003719      0.012091      0.000340
O	      4.37826      4.33819      1.15442         0.009100      0.001717      0.000425
O	      1.41146      4.33213      1.25381        -0.001813      0.001484     -0.004232
O	      2.91014      3.43111      6.01133         0.004780     -0.004671     -0.004282
O	      6.13483      3.52156      5.93879        -0.005572      0.003230     -0.009920
O	      4.57686      2.73105      3.40431        -0.001141     -0.005802      0.002568
O	      1.46760      2.56852      3.47422        -0.005174      0.007565      0.004195
O	      5.97631      1.62977      1.09545         0.000945      0.000912     -0.015681
O	      2.86197      1.60634      1.14538         0.005576     -0.007582     -0.008510
