# total energy = -223.47213481 eV
 
CRYSTAL
PRIMVEC
5.852726 0.025721 -0.063277 
1.361501 7.801301 0.151323 
1.555994 2.752271 7.265253 
PRIMCOORD
36 1
Li	      3.01495      1.86956      4.84199         0.004168     -0.002244     -0.006653
Li	      5.86761      1.80109      4.78847         0.012550     -0.009831     -0.002296
Li	      5.83096      8.74204      2.58221        -0.004024      0.001196      0.005820
Li	      5.80457      5.31059      0.08393         0.005670      0.003084      0.007206
Li	      2.92116      6.91942      4.94771         0.006603     -0.012033     -0.004123
Li	      4.36791      5.95962      2.55304         0.000072     -0.006791     -0.004319
Li	      1.41236      2.68933      0.05558         0.001598      0.000576     -0.002885
Li	      4.40244      4.36320      4.67726        -0.001062     -0.009504      0.001594
Li	      2.93854      3.60542      2.52272        -0.005645      0.005137      0.004761
Sc	      4.32822      2.69486      0.04589        -0.004612      0.013681     -0.005138
Mn	      2.89381     10.54148      7.40276         0.001696     -0.008647     -0.003119
Mn	      4.48401      2.76482      7.21419        -0.003451      0.012862      0.014692
V	      2.95643      8.69582      2.72896         0.001983      0.006433     -0.000236
Cr	      2.82711      5.24793      0.12248        -0.009676      0.004064      0.004119
Fe	      1.55629      4.43089      4.80173        -0.010343     -0.000626     -0.019320
Co	      5.79756      3.48870      2.45740         0.018215      0.008944     -0.004084
Cu	      5.86293      7.13037      4.86144        -0.012815     -0.008029     -0.008060
Ni	      1.42503      6.07000      2.53408        -0.014003     -0.001881     -0.005603
O	      5.78344      8.99303      6.31217         0.006935     -0.000687     -0.000481
O	      2.96613      8.93393      6.36542        -0.001016      0.006096      0.015659
O	      7.30549      7.85005      3.62491        -0.010728     -0.005593     -0.002472
O	      4.27809      7.97600      3.69025         0.018033     -0.003982      0.009872
O	      2.97565      7.00231      1.36434         0.000659     -0.007562      0.007345
O	      5.75429      7.09784      1.18051        -0.005587      0.004919     -0.000639
O	      7.26345      6.10396      5.93030         0.012951     -0.001952      0.001774
O	      4.47810      6.44733      6.14092        -0.011465     -0.000200     -0.009485
O	      2.88365      5.22128      3.72295         0.004756     -0.007267     -0.003568
O	      5.90961      5.14947      3.60651        -0.003985     -0.003517      0.002300
O	      4.32819      4.35514      1.19843        -0.001405     -0.000484      0.000273
O	      1.39355      4.38401      1.30448         0.000031      0.006885     -0.001262
O	      2.92996      3.55793      6.11860         0.019127     -0.000215      0.008064
O	      5.76901      3.66400      6.05887        -0.002368      0.004177      0.002290
O	      4.53494      2.70877      3.46085         0.004433      0.005449      0.000994
O	      1.48438      2.58660      3.58522        -0.009702      0.000571     -0.005030
O	      5.94329      1.67567      1.16372        -0.005012      0.009171      0.002056
O	      2.85578      1.60394      1.13874        -0.002582     -0.002199     -0.000049
