# total energy = -223.37093665 eV
 
CRYSTAL
PRIMVEC
5.891525 0.022025 -0.052992 
1.365907 7.749920 0.071994 
1.577651 2.657444 7.200768 
PRIMCOORD
36 1
Li	      3.02585      1.79681      4.80010         0.002222     -0.001543      0.003773
Li	      5.89185      1.78293      4.71646         0.008301     -0.005882     -0.000084
Li	      4.48820      0.92706      2.43633         0.002333      0.007235      0.001307
Li	      5.82452      5.30690      0.08262         0.000330      0.002308     -0.000228
Li	      2.94592      6.89509      4.88499        -0.003121     -0.004570     -0.000933
Li	      4.40740      5.97200      2.44117        -0.001802     -0.001490     -0.001633
Li	      1.43839      2.62200      0.01753        -0.000802     -0.000247      0.001633
Li	      4.41255      4.27642      4.60927         0.003614     -0.009001     -0.000796
Li	      3.01373      3.53706      2.50748         0.001495      0.003203     -0.004992
Sc	      4.38425      2.65536      0.06890        -0.007133      0.006036      0.006104
Mn	      4.51055      2.66507      7.14308        -0.010681      0.000590      0.003660
Mn	      1.56593      4.32070      4.76402         0.004676      0.006846      0.007422
V	      2.93242      8.64461      2.64322        -0.004706     -0.001364     -0.010310
Cr	      2.82352      5.16429      0.05674         0.002799      0.000342      0.000354
Fe	      2.89854     10.31881      7.23060         0.000237      0.021447     -0.005193
Co	      5.90660      3.45159      2.37152         0.006574     -0.002335     -0.012282
Cu	      5.93265      7.07910      4.81581        -0.017286      0.001048     -0.002351
Ni	      1.39808      6.01744      2.47130         0.003764     -0.003272     -0.001712
O	      5.80166      8.82257      6.16821        -0.007038      0.003635      0.006765
O	      2.98074      8.69375      6.18524         0.003301      0.001290     -0.001344
O	      7.34997      7.79280      3.56559         0.003500     -0.011094      0.000050
O	      4.26226      7.87043      3.54029         0.009783     -0.007975      0.006795
O	      2.79344      6.96796      1.27250        -0.005837     -0.005748     -0.003218
O	      5.80127      7.00501      1.17755        -0.002040      0.000176      0.008901
O	      7.34652      5.91985      5.79321        -0.015184      0.008224     -0.004262
O	      4.56178      6.28607      6.03081         0.003112      0.005628     -0.004319
O	      2.84336      5.13235      3.68416        -0.007100      0.000120     -0.002571
O	      6.00148      4.99428      3.58483        -0.012095     -0.001005      0.004272
O	      4.32953      4.35048      1.14853        -0.001471      0.001980     -0.001547
O	      1.36384      4.31702      1.24871         0.006992      0.005117     -0.000561
O	      2.92210      3.53119      5.97518         0.021397     -0.008692      0.012841
O	      6.05702      3.55537      5.97384        -0.004144     -0.008492      0.001447
O	      4.61641      2.69370      3.41846        -0.001788     -0.000807      0.007029
O	      1.55899      2.58403      3.60370         0.001372      0.000129     -0.003108
O	      5.98735      1.74355      1.22273         0.008271      0.004824     -0.000379
O	      2.87194      1.59492      1.10794         0.008152     -0.006663     -0.010530
