# total energy = -223.93548971 eV
 
CRYSTAL
PRIMVEC
5.918674 0.041064 -0.071262 
1.396081 7.695570 0.006282 
1.570344 2.586472 7.194595 
PRIMCOORD
36 1
Li	      3.06632      1.76640      4.79766         0.002589      0.013065      0.003100
Li	      5.98394      1.76506      4.70078         0.000965      0.000490     -0.000103
Li	      5.89811      8.58637      2.37406         0.009279     -0.007878     -0.007046
Li	      5.87203      5.21230     -0.03916         0.000738      0.015993      0.013901
Li	      2.93620      6.78300      4.81213         0.000116     -0.000746      0.013847
Li	      4.33810      5.86709      2.45009        -0.008501     -0.014373      0.012874
Li	      1.44932      2.60594      0.00527        -0.001038     -0.001540     -0.007431
Li	      4.40377      4.33630      4.60360        -0.011140     -0.014665      0.022110
Li	      2.95788      3.50772      2.43836         0.001674      0.002794      0.008372
Sc	      4.37538      2.59539      0.03446         0.002167     -0.001887     -0.005889
Mn	      1.43063      7.65301     -0.01719        -0.009886      0.007890     -0.000912
Mn	      1.61891      4.27336      4.76264        -0.019494     -0.001296     -0.011872
V	      3.01486      8.56018      2.50483        -0.000392     -0.002167      0.004720
Cr	      2.84935      5.13212      0.02259        -0.000538      0.003014     -0.013876
Fe	      5.97283      6.95883      4.74337        -0.008727      0.013673     -0.005290
Co	      5.88183      3.49429      2.38310        -0.003157     -0.005117     -0.006137
Cu	      5.96105     10.25600      7.08557        -0.003816     -0.008094     -0.002228
Ni	      1.37748      5.97828      2.42926        -0.001487     -0.004233      0.007615
O	      5.83655      8.52340      5.96729         0.001722      0.004202      0.002685
O	      3.03754      8.66602      6.15007         0.010308     -0.003985      0.008026
O	      7.37773      7.78033      3.52722         0.008190     -0.004800     -0.006401
O	      4.30186      7.75264      3.47330         0.015122      0.005343      0.002189
O	      2.73245      6.86523      1.20732         0.006098     -0.000299     -0.001348
O	      5.94072      6.99902      0.98157         0.011330      0.001163      0.002444
O	      7.34197      6.00828      5.86853         0.003526      0.003345      0.000026
O	      4.53226      6.12380      6.00514        -0.010322      0.008710     -0.001052
O	      2.85554      5.11132      3.64707        -0.001829      0.002228      0.000251
O	      5.89467      5.23784      3.58498        -0.007085     -0.000224     -0.001462
O	      4.34571      4.30936      1.13599         0.001631     -0.000967      0.003287
O	      1.36360      4.27300      1.23424         0.008283      0.002107     -0.003065
O	      3.01154      3.35623      6.05710         0.006202      0.006015     -0.004658
O	      6.27073      3.46603      5.92241        -0.003097      0.000258     -0.004721
O	      4.64433      2.70962      3.40869        -0.005546     -0.006001      0.001048
O	      1.51883      2.52446      3.49607        -0.003029     -0.003559     -0.010529
O	      6.01741      1.64114      1.12913         0.005949      0.002188     -0.008738
O	      2.89772      1.59761      1.16951         0.003195     -0.010647     -0.003738
