# total energy = -220.54839812 eV
 
CRYSTAL
PRIMVEC
5.864459 0.037558 -0.043794 
1.379279 7.807813 0.086736 
1.587738 2.692382 7.235781 
PRIMCOORD
36 1
Li	      2.97436      1.82748      4.80655        -0.003162      0.003527      0.001052
Li	      5.87505      1.86594      4.67290        -0.003025     -0.000681     -0.005907
Li	      4.43676      0.95631      2.43872         0.002553     -0.004482     -0.003388
Li	      5.86895      5.27119      0.07522         0.002276     -0.004271      0.003831
Li	      2.93466      6.97434      4.92753        -0.001551      0.004219      0.008118
Li	      4.40190      6.05901      2.45410         0.004351     -0.002007      0.004384
Li	      1.45596      2.59732     -0.01442        -0.003423     -0.003210     -0.004348
Li	      4.36626      4.36319      4.66569        -0.000829     -0.001847     -0.004324
Li	      2.96069      3.63141      2.57037        -0.005303      0.002501      0.003362
Sc	      4.41187      2.62739      0.11369         0.002516      0.000555     -0.006937
Mn	      5.91771      7.11503      4.86121         0.004048     -0.003984      0.007145
V	      1.53141      0.92851      2.48565        -0.005262      0.015847     -0.000546
Cr	      2.84002      5.17876      0.09759        -0.001260     -0.006354      0.004955
Fe	      2.95112     10.38951      7.22599        -0.002537     -0.001409     -0.002865
Fe	      5.92782     10.46166      7.23335         0.004677     -0.006295     -0.006585
Co	      5.87410      3.55693      2.41534         0.011642      0.016146     -0.005528
Cu	      1.57941      4.45518      4.86289        -0.005607     -0.001002      0.008955
Ni	      1.42767      6.09956      2.50813        -0.002400     -0.007449     -0.006517
O	      5.83550      8.71453      6.08866         0.000660     -0.003967     -0.007318
O	      3.04725      8.72854      6.22162         0.007741     -0.005181     -0.000030
O	      7.27010      7.89112      3.63194         0.000151      0.005764     -0.000693
O	      4.20040      7.99523      3.55407        -0.004388     -0.000789     -0.003365
O	      2.87738      6.96851      1.22546         0.000247     -0.003001     -0.001614
O	      5.78113      7.01998      1.15012         0.004933      0.000676     -0.002461
O	      7.42421      6.06708      6.04772         0.001057      0.005095      0.000766
O	      4.59525      6.32266      6.10616        -0.000724      0.003731      0.007692
O	      2.86287      5.27783      3.70316         0.002682      0.001465      0.004895
O	      5.91862      5.40470      3.77830        -0.006894     -0.000119      0.009685
O	      4.41322      4.34463      1.24194         0.001494      0.004468      0.000079
O	      1.40638      4.37954      1.33355        -0.003892      0.002909      0.000446
O	      3.01576      3.45521      6.00335         0.002553      0.005118     -0.005768
O	      5.98343      3.55035      6.05360         0.010033      0.009116     -0.001330
O	      4.58987      2.78611      3.43647        -0.009474     -0.005805      0.009924
O	      1.41259      2.62221      3.47185         0.000224     -0.014319     -0.004160
O	      5.97001      1.62626      1.18679        -0.000060     -0.003356     -0.004531
O	      2.86314      1.60979      1.12495        -0.004048     -0.001608      0.002924
