# total energy = -221.12835186 eV
 
CRYSTAL
PRIMVEC
5.920792 0.005461 0.010592 
1.350371 7.698582 0.001351 
1.655871 2.558289 7.233912 
PRIMCOORD
36 1
Li	      3.03237      1.71057      4.84705         0.004852     -0.001514      0.008852
Li	      5.97600      1.75950      4.75443        -0.011540      0.007269     -0.003607
Li	      5.89675      8.55719      2.43627         0.001297     -0.002853      0.002368
Li	      5.89696      5.15282      0.04334         0.002629      0.000554      0.001007
Li	      2.97337      6.72993      4.87098         0.002491      0.004716     -0.003678
Li	      4.32586      5.82702      2.50928         0.016001      0.000006     -0.006795
Li	      1.41671      2.57821      0.00639        -0.001564     -0.002859     -0.005997
Li	      4.47454      4.28224      4.69199        -0.001836      0.003268     -0.003263
Li	      2.98938      3.49266      2.48454         0.001051     -0.004568     -0.002832
Sc	      4.42173      2.57731      0.07758        -0.006770      0.001960     -0.005987
Mn	      5.98162      6.92151      4.82184        -0.015278     -0.003326      0.009959
V	      2.99166      8.53218      2.53298         0.001009     -0.000594      0.004270
Cr	      2.83727      5.14027      0.06656        -0.005601     -0.005421     -0.010003
Fe	      6.02009     10.20672      7.17027        -0.000986     -0.008655      0.007795
Fe	      1.62321      4.25141      4.79251         0.001215     -0.005417     -0.011849
Co	      5.90435      3.45298      2.44171        -0.001735      0.000401     -0.002437
Cu	      3.00950     10.22833      7.20023         0.003256      0.008387      0.006334
Ni	      1.45859      5.98437      2.42347         0.015466     -0.000693     -0.001015
O	      5.90361      8.51510      6.03067         0.003029      0.004281      0.004174
O	      3.10119      8.59733      6.22611         0.007213     -0.002594      0.003545
O	      7.35468      7.70887      3.61448         0.004525      0.002294     -0.002011
O	      4.26440      7.81972      3.54288        -0.007880      0.008409     -0.005279
O	      3.04642      6.82470      1.28679         0.005796      0.010093      0.000834
O	      5.92664      6.94826      1.05143        -0.011413     -0.000326      0.004675
O	      7.48258      5.86083      6.02221         0.000319      0.000152      0.002866
O	      4.63064      6.15123      6.04551         0.007864      0.004217      0.002426
O	      2.90789      5.08746      3.67995        -0.000855     -0.002525      0.001740
O	      5.97256      5.22709      3.68924         0.001750     -0.008075      0.000197
O	      4.36151      4.28617      1.16890         0.000191     -0.000769     -0.005100
O	      1.38603      4.27454      1.26437        -0.001625     -0.004328      0.003715
O	      2.97608      3.30687      6.06902        -0.001049     -0.001447      0.001115
O	      5.89561      3.47722      5.95707         0.003030     -0.005246      0.003752
O	      4.64680      2.68188      3.43036        -0.004284     -0.001484      0.004389
O	      1.50432      2.52626      3.53613        -0.005561      0.004349     -0.000866
O	      6.01659      1.59680      1.22307        -0.007180      0.003804     -0.002471
O	      2.89237      1.57851      1.16731         0.002172     -0.001465     -0.000823
