# total energy = -221.19693867 eV
 
CRYSTAL
PRIMVEC
5.874247 0.071767 -0.110917 
1.425940 7.725265 0.028093 
1.523433 2.631595 7.179058 
PRIMCOORD
36 1
Li	      2.92106      1.78954      4.80199         0.006684     -0.003229      0.001357
Li	      5.86787      1.86465      4.60936        -0.008969     -0.011412     -0.001237
Li	      4.45663      0.95074      2.36436        -0.011172      0.005449      0.005637
Li	      5.88458      5.28431     -0.00455        -0.013074      0.007595     -0.001595
Li	      2.92664      6.89917      4.85495         0.013722     -0.002162     -0.001781
Li	      4.42132      6.00421      2.32496         0.008363     -0.003299      0.002660
Li	      1.45288      2.60039     -0.02961         0.003565      0.007846      0.004965
Li	      4.37674      4.29920      4.59248        -0.004209     -0.010631     -0.008543
Li	      2.98315      3.56760      2.47740        -0.006694      0.004655      0.013871
Sc	      4.34549      2.58046      0.02933         0.008950     -0.001671     -0.002542
Mn	      1.55296      4.34623      4.75998        -0.005495     -0.008838      0.005108
V	      2.97919      8.59498      2.47324         0.000669      0.003776     -0.009463
Cr	      2.87700      5.15274      0.04424         0.008081      0.001954     -0.002548
Fe	      2.90904     10.25165      7.15323        -0.000303      0.005341     -0.015726
Fe	      5.90910      7.06603      4.71572        -0.011668      0.000316      0.014404
Co	      5.87957      3.52439      2.29370         0.000060      0.006097     -0.001318
Cu	      5.90517     10.33303      7.07212        -0.004272     -0.001386      0.007230
Ni	      1.41518      6.01836      2.44114        -0.003870     -0.008117     -0.003457
O	      5.80816      8.61041      5.97514         0.003773      0.004389      0.002314
O	      3.01038      8.62395      6.11471         0.000537     -0.003793      0.005020
O	      7.34514      7.84902      3.51103         0.004615     -0.004984      0.001101
O	      4.29994      7.87263      3.50466        -0.006144      0.002814     -0.011260
O	      2.82736      6.89073      1.26772         0.012555      0.005617     -0.003054
O	      5.85996      6.98891      1.07252        -0.004687      0.002641     -0.009543
O	      7.30837      5.97826      5.78928         0.002776      0.002956     -0.003049
O	      4.51726      6.22241      6.00228         0.008348      0.003876      0.007216
O	      2.82709      5.15865      3.67232         0.004458      0.008015      0.000703
O	      5.94631      5.28908      3.63513        -0.011133      0.004465     -0.014648
O	      4.41908      4.31500      1.13671         0.008226      0.008543     -0.000558
O	      1.40896      4.30102      1.25161         0.000526      0.009628      0.001957
O	      2.86905      3.48658      5.89019        -0.005725     -0.011728      0.010169
O	      6.05983      3.59211      5.83077        -0.005189      0.000828      0.004805
O	      4.60438      2.75775      3.33394        -0.001770      0.003133     -0.002593
O	      1.45029      2.65053      3.51177         0.009300     -0.008532      0.006130
O	      6.00346      1.67307      1.13167         0.001413     -0.005414     -0.001598
O	      2.86174      1.58826      1.11407        -0.002249     -0.014742     -0.000133
