# total energy = -216.57281897 eV
 
CRYSTAL
PRIMVEC
5.889045 0.006591 0.014554 
1.344507 7.704258 0.034330 
1.652030 2.590382 7.224533 
PRIMCOORD
36 1
Li	      3.06047      1.75827      4.90003         0.009784      0.000696      0.004134
Li	      5.89672      1.82907      4.71531        -0.010218      0.007088     -0.003538
Li	      4.54620      0.90936      2.45170        -0.002608      0.004311     -0.003594
Li	      5.88082      5.19295      0.06696        -0.006176      0.014056      0.005648
Li	      2.97169      6.70806      4.87738         0.014978      0.010066     -0.003941
Li	      4.32107      5.80483      2.50561        -0.022960     -0.005150      0.002982
Li	      1.44903      2.55800     -0.03612         0.014347      0.007016      0.008150
Li	      4.39435      4.27133      4.65292         0.002018      0.000226     -0.007688
Li	      2.97161      3.53006      2.56214        -0.003443      0.014805      0.001527
Sc	      4.41035      2.55915      0.07030         0.003272     -0.016108      0.013500
Mn	      5.99868     10.24270      7.22073         0.018553      0.004750      0.012154
V	      2.99047      8.51709      2.57641        -0.015498      0.014284     -0.006484
Cr	      2.84250      5.14282      0.10911        -0.005158     -0.020070      0.021501
Fe	      5.96375      6.89368      4.81711         0.010120      0.006531     -0.016633
Co	      5.87956      3.47893      2.42733        -0.006140      0.007870     -0.007296
Cu	      3.04405     10.26906      7.23161         0.001161     -0.027476      0.008711
Cu	      1.51376      4.24887      4.78035        -0.014172     -0.007891     -0.009096
Ni	      1.44089      5.98099      2.47051        -0.002022     -0.003166     -0.004571
O	      5.91723      8.57624      6.13400         0.005499     -0.007427     -0.007822
O	      3.12662      8.65589      6.26216         0.003221      0.011464      0.001428
O	      7.35058      7.74733      3.60880         0.002729      0.005807      0.011189
O	      4.28273      7.90660      3.63958        -0.001448      0.000112      0.014051
O	      3.10551      6.81812      1.35391        -0.000514      0.020696     -0.020931
O	      5.87522      6.98545      1.05382         0.013710      0.008465     -0.005449
O	      7.36929      5.95822      5.94788         0.006961     -0.006142     -0.013104
O	      4.57483      6.18236      6.11626         0.002868     -0.004537      0.008795
O	      2.82766      5.11097      3.70032        -0.005270     -0.009547      0.009542
O	      5.77901      5.36307      3.61432        -0.001841     -0.008597      0.003489
O	      4.39947      4.24184      1.22446        -0.015383     -0.001110     -0.009438
O	      1.37992      4.30795      1.28094         0.004003     -0.010108     -0.016728
O	      3.14137      3.26271      6.19342         0.002860     -0.001154     -0.003764
O	      5.83062      3.48739      5.96603        -0.020845      0.003249     -0.004345
O	      4.59912      2.67757      3.41964        -0.003952      0.003085      0.003044
O	      1.40030      2.57736      3.44804         0.011242     -0.000525      0.018130
O	      6.00953      1.55751      1.16386         0.002740     -0.001772     -0.008051
O	      2.90985      1.51008      1.14829         0.007584     -0.013797      0.004495
