# total energy = -221.01497060 eV
 
CRYSTAL
PRIMVEC
5.833972 0.053816 -0.044531 
1.393254 7.808394 0.136445 
1.585231 2.743226 7.269691 
PRIMCOORD
36 1
Li	      2.95302      1.85709      4.86146         0.005795     -0.004095      0.006288
Li	      5.86474      1.88919      4.69307        -0.006594      0.000179      0.004662
Li	      4.47587      0.98587      2.42369        -0.001310     -0.003375     -0.001351
Li	      5.85064      5.28050      0.07121        -0.005351      0.006689     -0.000602
Li	      2.94307      6.89759      4.96606        -0.007663     -0.006726      0.004028
Li	      4.33542      5.93082      2.60660        -0.002740      0.006503     -0.009868
Li	      1.43066      2.68480      0.02419        -0.001610      0.008617     -0.002617
Li	      4.38716      4.34190      4.66318         0.001424     -0.000830     -0.002345
Li	      2.94119      3.60564      2.56383        -0.002745     -0.009038      0.000212
Sc	      4.34535      2.66539      0.09727         0.001691      0.011595     -0.016619
Mn	      1.49449      4.42025      4.87385        -0.006204     -0.010107      0.013403
V	      3.00092      8.65486      2.63475        -0.000040     -0.003568     -0.002360
Cr	      2.83888      5.26447      0.15715         0.001879      0.003299      0.000409
Fe	      5.91122      7.17057      4.91798         0.007538     -0.002742      0.014287
Fe	      5.96234     10.52932      7.30027        -0.002415     -0.005374      0.000089
Co	      5.84625      3.55680      2.40337        -0.006149     -0.015242      0.002108
Cu	      2.99874     10.52960      7.37024         0.007228      0.017002     -0.001601
Ni	      1.45300      6.11595      2.53029         0.003034      0.000853     -0.004255
O	      5.82054      8.83890      6.17699         0.001675     -0.004006      0.006608
O	      3.05213      8.92770      6.36741        -0.008283     -0.003480     -0.002894
O	      7.32731      7.92599      3.67824         0.007165     -0.002297      0.005745
O	      4.30082      8.00448      3.71768        -0.000695     -0.001089     -0.004889
O	      3.09754      6.93634      1.42401        -0.000083      0.006443      0.001735
O	      5.91209      7.10241      1.13883        -0.001036     -0.001782      0.005394
O	      7.27266      6.28459      6.07333         0.012155      0.006593      0.000599
O	      4.49026      6.44492      6.21204         0.001480     -0.002205     -0.006190
O	      2.83059      5.20237      3.81239         0.004688      0.008472     -0.006235
O	      5.88933      5.43152      3.77499        -0.003746     -0.006739      0.002669
O	      4.39286      4.35180      1.28312        -0.000621     -0.006559     -0.008040
O	      1.40685      4.40066      1.35882        -0.007300     -0.007372      0.007548
O	      2.88081      3.51979      6.05728        -0.002571     -0.004590     -0.003097
O	      5.79448      3.75646      5.95544         0.002474      0.006153     -0.004568
O	      4.57318      2.76694      3.41942         0.002901      0.006051     -0.010917
O	      1.41554      2.58227      3.43489         0.003612      0.006265      0.001330
O	      5.94396      1.61821      1.13154         0.005366      0.001610      0.001857
O	      2.85409      1.59793      1.13115        -0.002950      0.004892      0.009478
