# total energy = -103.49251726 eV
 
CRYSTAL
PRIMVEC
0.000315 2.101524 2.102814 
8.265674 -4.242099 4.245826 
2.024511 4.191010 -2.090408 
PRIMCOORD
16 1
Li	      0.14091      2.06052      2.14341         0.029603     -0.007607      0.007425
Li	      2.04694      2.08966      0.01106        -0.000225     -0.000228     -0.001260
Li	      3.95351      4.22024     -0.01847        -0.030549      0.006862     -0.007635
Li	      6.17985     -0.03218      2.13282         0.000396      0.000117      0.000281
Ti	      4.00910      2.06383      2.13106        -0.426545      0.051973     -0.043525
Ti	      8.35069     -0.02493      4.23942         0.430530     -0.053321      0.044433
Ni	      4.17580     -0.03254      4.23752        -0.014410      0.089398     -0.090566
Ni	      8.18419      2.07041      2.13198         0.016706     -0.088297      0.091346
O	      6.12008      2.11661      2.08661        -0.103964     -0.119967      0.118134
O	      6.24011     -0.07876      4.28295         0.100464      0.120409     -0.118572
O	      8.22580     -0.09901      2.20039        -0.010030     -0.097289      0.094910
O	      8.23896     -2.02465      4.12751         0.082770      0.094914     -0.102397
O	      1.91641      4.21130     -0.01009        -0.385161      0.006740     -0.003256
O	      2.17781      2.06922      2.13446         0.385399     -0.006085      0.003720
O	      4.12077      1.96142      0.13948        -0.082883     -0.097394      0.102989
O	      4.13394      0.03551      2.06648         0.007899      0.099775     -0.096025
