# total energy = -221.33060992 eV
 
CRYSTAL
PRIMVEC
5.884263 0.006909 -0.019586 
1.344147 7.725455 0.058827 
1.609603 2.627676 7.234070 
PRIMCOORD
36 1
Li	      3.05772      1.77942      4.83310         0.020486      0.006715     -0.016693
Li	      5.93043      1.76376      4.78452        -0.006560     -0.005744      0.008278
Li	      5.82162      8.57899      2.47759        -0.009120     -0.006801     -0.003501
Li	      5.82991      5.19161      0.05355        -0.002846     -0.005198      0.000351
Li	      2.93150      6.88272      4.91451        -0.003140      0.011469     -0.006536
Li	      4.35858      5.94056      2.45086        -0.007483      0.018595     -0.014511
Li	      1.40914      2.58508      0.00540         0.013694      0.000495     -0.008848
Li	      4.39645      4.32043      4.72313        -0.000274      0.007085      0.000236
Li	      2.96307      3.57376      2.50885         0.008528      0.013024     -0.004688
Sc	      4.39587      2.58065      0.09915         0.019282      0.008071      0.019203
Mn	      5.92236      6.97484      4.83347        -0.012096      0.001618      0.012828
V	      1.60072      0.93395      2.51646         0.001453     -0.003056      0.001323
Cr	      2.83624      5.13018      0.05386        -0.000218     -0.017018      0.003144
Fe	      2.92965     10.23474      7.22605         0.004489      0.001143      0.008891
Fe	      1.63791      4.33503      4.81175         0.003667      0.009689     -0.006942
Co	      5.83827      3.47629      2.46538        -0.009193     -0.008575      0.000366
Cu	      5.91164     10.31829      7.22340        -0.004337      0.010710     -0.013307
Ni	      1.40895      6.01926      2.46037         0.013030     -0.000034     -0.006793
O	      5.84327      8.55792      6.04565         0.000761     -0.014563     -0.009873
O	      3.03665      8.60946      6.18394        -0.007025      0.010969      0.002198
O	      7.27781      7.74532      3.61763        -0.002838     -0.005397     -0.005554
O	      4.20438      7.85174      3.53959        -0.026622      0.006845     -0.009011
O	      2.82911      6.90657      1.21275        -0.010662      0.006237     -0.002352
O	      5.80107      6.93332      1.18359         0.015903     -0.001015     -0.007077
O	      7.39424      5.93852      6.01052        -0.000545     -0.000477      0.008854
O	      4.59330      6.18611      6.05502         0.002695     -0.010990     -0.000759
O	      2.87966      5.17690      3.66470        -0.008260     -0.011190      0.019389
O	      5.93167      5.22256      3.71691         0.003479      0.008669     -0.000033
O	      4.32769      4.29363      1.18414         0.000685     -0.002192      0.021008
O	      1.37927      4.32397      1.29329        -0.009757     -0.005831      0.017393
O	      2.99728      3.45606      6.01605         0.003214     -0.001655     -0.001611
O	      6.04538      3.46309      6.05302        -0.003419     -0.013379     -0.002075
O	      4.59262      2.71047      3.47918         0.008278      0.013510     -0.013788
O	      1.49950      2.56922      3.55921        -0.003430     -0.007515      0.004124
O	      5.98319      1.67202      1.25969         0.006260     -0.013755      0.006866
O	      2.85211      1.60621      1.19861         0.001922     -0.000460     -0.000499
