# total energy = -221.02193822 eV
 
CRYSTAL
PRIMVEC
5.889022 0.004272 -0.025187 
1.342169 7.760970 0.081098 
1.603877 2.659742 7.211702 
PRIMCOORD
36 1
Li	      3.03958      1.78111      4.80537         0.004894      0.000008      0.000036
Li	      5.89017      1.75882      4.72388         0.005906     -0.006483      0.002666
Li	      4.49211      0.91991      2.47301         0.001917      0.002917     -0.002538
Li	      5.81532      5.29810      0.12273        -0.000177      0.003004      0.000829
Li	      2.95694      6.90640      4.90886        -0.002483     -0.000997     -0.003050
Li	      4.41245      5.96796      2.47853        -0.000514      0.001578     -0.001890
Li	      1.42974      2.62810      0.01456         0.001651      0.001433     -0.000208
Li	      4.41230      4.26927      4.63750         0.007317      0.000637     -0.000624
Li	      3.00835      3.52549      2.50824        -0.002444     -0.005809      0.004801
Sc	      4.37070      2.65867      0.10302        -0.000992     -0.006832      0.007815
Mn	      1.58070      4.30919      4.76878        -0.016735     -0.015234     -0.000462
V	      2.91830      8.66150      2.63652         0.003980      0.000401     -0.001490
Cr	      2.81024      5.17160      0.07216        -0.008806     -0.005668      0.016988
Fe	      2.91799     10.33926      7.24614        -0.008337      0.021189     -0.004427
Fe	      5.92279     10.39946      7.25115         0.007590      0.010258      0.003387
Co	      5.90900      3.44203      2.40529        -0.010202      0.000935      0.004606
Cu	      5.97029      7.07644      4.88796        -0.020041     -0.000070     -0.008572
Ni	      1.39508      6.03489      2.49252         0.002454      0.012883     -0.007518
O	      5.79298      8.79912      6.15512        -0.006687      0.005805      0.000949
O	      2.98813      8.70500      6.21696         0.002767     -0.013075     -0.005376
O	      7.31525      7.79528      3.62240        -0.007644     -0.014855      0.009206
O	      4.21856      7.87717      3.54135         0.017794     -0.008070      0.010590
O	      2.81197      7.00120      1.25847        -0.007743     -0.008380     -0.000019
O	      5.77281      7.00889      1.20826         0.005843     -0.020703      0.017771
O	      7.37533      5.87547      5.84326        -0.007053      0.013801     -0.001140
O	      4.57979      6.27805      6.05623        -0.004685      0.015020     -0.015399
O	      2.83910      5.12847      3.69751         0.007089      0.002972     -0.008771
O	      6.00669      4.97766      3.63211        -0.008386     -0.005131     -0.000592
O	      4.32133      4.36115      1.16951         0.003253      0.006365     -0.005233
O	      1.35103      4.33379      1.26785         0.008067      0.004839     -0.015650
O	      2.93651      3.53382      5.96847         0.005420     -0.004581      0.002779
O	      6.03953      3.51900      6.03460         0.001159      0.010391     -0.001067
O	      4.61112      2.69253      3.44015         0.007767     -0.002054     -0.001825
O	      1.55020      2.59225      3.62108         0.010674      0.002651      0.004012
O	      5.97416      1.72610      1.24866         0.009153     -0.004320      0.001602
O	      2.85728      1.63041      1.12493        -0.001767      0.005176     -0.002186
