# total energy = -221.24407613 eV
 
CRYSTAL
PRIMVEC
5.888458 0.010910 -0.024791 
1.350258 7.770094 0.055534 
1.606345 2.641376 7.231117 
PRIMCOORD
36 1
Li	      3.05347      1.74052      4.82657         0.004899     -0.015767      0.000441
Li	      5.88265      1.75177      4.70297        -0.010624     -0.003011     -0.013574
Li	      5.81128      8.67647      2.51591        -0.007426     -0.002005      0.003373
Li	      5.84274      5.20153      0.03279         0.009800     -0.003127      0.000921
Li	      2.94274      6.85979      4.86808         0.009133      0.006076      0.010578
Li	      4.40668      5.92912      2.59316        -0.007206      0.005088      0.012141
Li	      1.44505      2.62419      0.02305         0.003142      0.004203     -0.001010
Li	      4.39649      4.35319      4.60746         0.004908      0.004825     -0.004428
Li	      2.98591      3.56642      2.50770        -0.006871     -0.001646      0.006698
Sc	      4.40224      2.65940      0.07957        -0.003778     -0.000338      0.014109
Mn	      2.95729     10.34969      7.25186         0.000733     -0.001422      0.003651
V	      1.52358      0.91870      2.52519         0.007468      0.003393      0.000595
Cr	      2.81532      5.15985      0.07391        -0.001124     -0.007242     -0.006837
Fe	      5.93372     10.36837      7.21444         0.001029     -0.005957      0.015909
Fe	      1.61443      4.42378      4.80207        -0.003831      0.009038     -0.023646
Co	      5.88330      3.52482      2.43352         0.005008     -0.000196      0.020453
Cu	      5.93775      7.05551      4.87384        -0.008765      0.007927     -0.012454
Ni	      1.39869      6.05435      2.49442         0.008112     -0.002187     -0.004072
O	      5.82522      8.69819      6.12769         0.007418      0.007462     -0.005300
O	      3.02775      8.74922      6.24472         0.006701     -0.004138      0.005940
O	      7.30718      7.81350      3.58801         0.001674     -0.005252      0.009695
O	      4.17069      7.91855      3.47275         0.004475      0.014514      0.008246
O	      2.77427      6.97375      1.15537        -0.026062     -0.007373     -0.009918
O	      5.85274      7.00218      1.10384         0.009397      0.001990     -0.000144
O	      7.48054      5.92757      6.05296        -0.001113     -0.018070      0.005557
O	      4.56916      6.24574      6.10314        -0.002322      0.002501      0.001752
O	      2.90211      5.20210      3.66289         0.007376      0.017028     -0.006903
O	      5.93626      5.22263      3.72357        -0.008321      0.005491      0.010075
O	      4.38607      4.33942      1.22561         0.001089      0.007419     -0.006702
O	      1.37378      4.34658      1.30551         0.005602     -0.007229      0.003127
O	      2.97262      3.37078      6.03519         0.002212     -0.005128     -0.007381
O	      6.11110      3.41553      6.09817        -0.002289      0.003307     -0.013326
O	      4.60534      2.72726      3.44889        -0.003741     -0.003477     -0.003992
O	      1.41532      2.61261      3.49034        -0.017439      0.007305     -0.004289
O	      5.96077      1.56048      1.14499         0.006825     -0.002836     -0.009586
O	      2.86783      1.60152      1.10940         0.003910     -0.011167      0.000300
