# total energy = -220.88501557 eV
 
CRYSTAL
PRIMVEC
5.890390 0.043839 -0.030785 
1.393494 7.708623 0.038678 
1.613480 2.613127 7.220242 
PRIMCOORD
36 1
Li	      3.04467      1.80871      4.79775         0.006757     -0.006934     -0.000219
Li	      5.87674      1.85186      4.69779        -0.000582      0.001501     -0.000632
Li	      4.53977      0.95307      2.44209        -0.014375     -0.014134      0.001151
Li	      5.90902      5.21719      0.03610         0.012956      0.008328      0.008351
Li	      2.97428      6.78519      4.88558         0.020439     -0.004858     -0.009479
Li	      4.36711      5.83583      2.51565         0.005196     -0.005031      0.002477
Li	      1.43365      2.62451     -0.00227         0.004436      0.006654     -0.001091
Li	      4.43501      4.24622      4.61467        -0.000852     -0.009018      0.003895
Li	      3.00702      3.52734      2.51241        -0.011524      0.006670     -0.008525
Sc	      4.38910      2.60599      0.06677        -0.001553      0.016693     -0.010197
Mn	      5.98327     10.29593      7.19428        -0.005664      0.015519     -0.000608
V	      3.02908      8.53743      2.58192         0.009396     -0.011391     -0.007691
Cr	      2.85483      5.17563      0.08221         0.011285      0.004572      0.015337
Fe	      5.96277      6.98518      4.80792        -0.015703     -0.022402     -0.011048
Fe	      1.56079      4.27959      4.75317        -0.016416      0.005173     -0.004313
Co	      5.87199      3.47904      2.38134        -0.016385      0.000977      0.011787
Cu	      3.00494     10.30073      7.22765        -0.004040      0.020401     -0.004451
Ni	      1.47185      6.00114      2.43453        -0.002729     -0.008636     -0.001487
O	      5.89906      8.64950      6.08597         0.008746     -0.008956     -0.002686
O	      3.09218      8.69718      6.22763         0.004252      0.003361     -0.007081
O	      7.40335      7.77516      3.58689        -0.002894      0.013698      0.014967
O	      4.34379      7.83634      3.60237        -0.005304      0.002743     -0.000756
O	      3.12219      6.85520      1.32383        -0.015352      0.003561      0.007300
O	      5.97200      6.98005      1.08862         0.025907     -0.004734      0.007197
O	      7.34366      6.01430      5.92583        -0.008991      0.003373      0.006744
O	      4.55930      6.24024      6.07207         0.023508     -0.012278     -0.003404
O	      2.87639      5.12816      3.68695         0.000908     -0.002512      0.004509
O	      5.94434      5.29199      3.67147        -0.007852      0.003437     -0.003371
O	      4.38001      4.29891      1.17270         0.001902     -0.002803     -0.017299
O	      1.45454      4.32455      1.25469        -0.012722     -0.006728      0.005429
O	      2.88764      3.40966      6.04057         0.003691     -0.002717     -0.014751
O	      5.79162      3.55910      5.93680        -0.001840      0.000324      0.010227
O	      4.54071      2.65699      3.43421        -0.000401     -0.004291      0.008339
O	      1.48765      2.53863      3.51707        -0.015155     -0.002149      0.012477
O	      6.00453      1.60322      1.15451        -0.004849      0.012066      0.003652
O	      2.88462      1.53195      1.12065         0.025804      0.000519     -0.014752
