# total energy = -217.20496530 eV
 
CRYSTAL
PRIMVEC
5.763261 0.025332 -0.076535 
1.342668 7.966636 0.386575 
1.516387 3.027355 7.394216 
PRIMCOORD
36 1
Li	      2.99409      2.12079      4.94733         0.010707     -0.003127      0.006825
Li	      5.79077      1.92051      4.92108        -0.001005      0.009781     -0.006376
Li	      5.73819      8.97749      2.80395        -0.003210     -0.007397      0.001421
Li	      5.69828      5.37608      0.14482         0.002444     -0.001866      0.000479
Li	      2.85465      7.09151      5.13104         0.003745      0.010158      0.003771
Li	      4.30371      6.22003      2.71999        -0.001332      0.009735      0.008388
Li	      1.39734      2.72430      0.08270        -0.003436     -0.013611     -0.007739
Li	      4.30383      4.53966      4.84236         0.002938      0.004052     -0.000103
Li	      2.90725      3.86054      2.73290        -0.000257     -0.004419     -0.009534
Sc	      4.30027      2.79388      0.13756         0.007356      0.004609     -0.003872
Mn	      2.87608      0.00401     -0.05121        -0.003072     -0.011786     -0.004507
V	      2.88255      9.00129      3.00755        -0.005809     -0.008392      0.010123
Cr	      2.76543      5.36947      0.26012         0.000404      0.007344     -0.001280
Fe	      1.49019      2.98806      7.33205        -0.000076      0.002699      0.005230
Co	      5.70045      3.72895      2.57181        -0.001628     -0.008259      0.004596
Cu	      5.70455      7.39813      5.07147         0.006417     -0.002185      0.002523
Cu	      1.48489      4.72299      5.09544        -0.018015      0.001673     -0.001158
Ni	      1.38351      6.23851      2.71757         0.004124      0.005320      0.007115
O	      5.68717      9.43799      6.64309         0.004145     -0.002026      0.001593
O	      2.89067      9.36066      6.61364         0.005375     -0.004884      0.003322
O	      7.26719      8.09939      3.76043        -0.002143      0.004804     -0.000002
O	      4.21947      8.14386      3.87924        -0.008304      0.009196     -0.000899
O	      2.82380      7.12994      1.48018         0.004562     -0.009501     -0.004701
O	      5.65502      7.23755      1.44931         0.003832      0.001181      0.000539
O	      7.09343      6.70404      6.25137        -0.000967     -0.004363     -0.000229
O	      4.34969      6.80914      6.42656        -0.004739     -0.005769     -0.000157
O	      2.80365      5.43214      3.91988         0.002480      0.000433     -0.008096
O	      5.81725      5.33090      3.81101         0.002751      0.003330      0.004416
O	      4.21571      4.44956      1.36247         0.002744      0.001264     -0.008405
O	      1.34069      4.50623      1.49552        -0.004474      0.001868      0.001565
O	      2.93528      3.89284      6.24509        -0.002116     -0.002345      0.001497
O	      5.78473      3.98833      6.27831         0.000088     -0.005845     -0.005244
O	      4.52606      2.84349      3.60582         0.001865      0.015545     -0.008385
O	      1.53800      2.51382      3.51930        -0.000386      0.006319      0.002302
O	      5.87274      1.76318      1.22105         0.000665     -0.011035      0.004520
O	      2.78478      1.56921      1.18559        -0.005673      0.007498      0.000463
