# total energy = -216.95393887 eV
 
CRYSTAL
PRIMVEC
5.921203 -0.029243 0.044596 
1.305418 7.687466 0.016074 
1.682435 2.554090 7.215436 
PRIMCOORD
36 1
Li	      3.10738      1.69442      4.81864        -0.005550      0.001831      0.018602
Li	      5.97631      1.68557      4.78852        -0.016692      0.012520     -0.012428
Li	      5.86935      8.49784      2.50349         0.006556      0.004649      0.001251
Li	      5.86001      5.18410      0.12379         0.009368     -0.012248     -0.015867
Li	      2.99083      6.72390      4.86654         0.000057      0.003759      0.005688
Li	      4.34630      5.86910      2.50789         0.012178     -0.015005      0.002843
Li	      1.41024      2.55661     -0.00095        -0.007981      0.000788     -0.006677
Li	      4.46829      4.25672      4.72801        -0.006310     -0.011430     -0.005872
Li	      2.98508      3.45959      2.49880        -0.002666     -0.001026     -0.002234
Sc	      4.37218      2.58529      0.08749         0.001748     -0.006575     -0.012649
Mn	      1.57445      4.22925      4.79499        -0.012526      0.010733     -0.004923
V	      2.91954      8.51730      2.56021        -0.011489     -0.003631     -0.000301
Cr	      2.80190      5.13070      0.07350         0.018609      0.001160     -0.007311
Fe	      6.04461     10.16057      7.22514         0.016908     -0.018351      0.015312
Co	      5.89656      3.40088      2.47747         0.001134     -0.004816     -0.015012
Cu	      2.99680     10.22427      7.19856        -0.000272     -0.001393      0.011248
Cu	      5.98533      6.93072      4.87673        -0.005536      0.004662     -0.000584
Ni	      1.44469      5.96513      2.44326        -0.009509      0.007171      0.003715
O	      5.89099      8.57377      6.09923         0.006270     -0.006620      0.002266
O	      3.08359      8.59322      6.22695        -0.001205     -0.003195      0.000625
O	      7.35441      7.65836      3.62014         0.003643      0.001502      0.005878
O	      4.21064      7.80875      3.51292         0.003336      0.001758      0.003954
O	      3.00399      6.81266      1.30756         0.004039     -0.004243      0.015172
O	      5.89485      6.91196      1.13231        -0.002634      0.000855     -0.004481
O	      7.54452      5.68572      5.98442        -0.003877     -0.001057     -0.010080
O	      4.62082      6.13416      6.07051         0.004956     -0.003656      0.001732
O	      2.86913      5.02102      3.71929        -0.003108      0.001971      0.005858
O	      6.06031      5.05590      3.75004        -0.005988     -0.000181     -0.012012
O	      4.35243      4.28257      1.18546        -0.010652      0.011949     -0.000285
O	      1.35177      4.26488      1.25505         0.007555     -0.002038      0.010397
O	      2.90752      3.34550      5.96147         0.005093      0.013577     -0.009303
O	      5.93436      3.46154      5.94758         0.014529      0.005609     -0.003490
O	      4.61862      2.62785      3.44190        -0.006404      0.000995      0.019513
O	      1.49098      2.56059      3.55806         0.001806      0.012121      0.001896
O	      5.99727      1.55548      1.22700        -0.009999      0.007574     -0.011780
O	      2.86809      1.57298      1.13166         0.004613     -0.009722      0.009338
