# total energy = -99.90913715 eV
 
CRYSTAL
PRIMVEC
-0.000062 2.076956 2.077043 
17.424320 -0.000490 -0.001000 
0.000121 2.076844 -2.076932 
PRIMCOORD
16 1
Li	      0.30043      0.00131     -0.00096        -0.015032     -0.000165      0.000389
Li	      2.17903      2.07826     -0.00229        -0.000711      0.000087     -0.000493
Li	      4.05587      2.07824      2.07371         0.013475     -0.000792      0.000796
Li	     10.88962      2.07722     -0.00292         0.000364     -0.000042     -0.000798
Ti	      6.45856      2.07764     -0.00381        -0.669317     -0.000663     -0.000319
Ti	     15.32055      2.07804     -0.00096         0.671385     -0.001134     -0.000103
Ni	      8.93091      2.07746      2.07300         0.011659     -0.000757      0.003145
Ni	     12.84759      2.07773      2.07497        -0.011195     -0.000872      0.000964
O	     13.21911      2.07776     -0.00203         0.077891     -0.000619      0.000356
O	     15.12992      0.00109     -0.00126         0.041783      0.003484     -0.000882
O	      8.55941      2.07742     -0.00399        -0.076896     -0.000453     -0.000594
O	     10.88908      2.07726      2.07415         0.003590      0.000440     -0.000141
O	      4.68301      2.07779     -0.00375         0.664618      0.000245     -0.001508
O	      6.64854      2.07770      2.07300        -0.041083      0.000363     -0.001153
O	     17.09616      2.07785     -0.00176        -0.670470      0.001084      0.000016
O	      2.17808      2.07827      2.07473        -0.000062     -0.000204      0.000325
