# total energy = -216.76315573 eV
 
CRYSTAL
PRIMVEC
5.822169 0.041951 -0.060909 
1.375318 7.790916 0.183331 
1.557175 2.781202 7.271240 
PRIMCOORD
36 1
Li	      2.95561      1.86876      4.89460         0.004242      0.008558      0.001413
Li	      5.80485      1.88227      4.77902         0.003931      0.004051     -0.008837
Li	      4.46328      0.99870      2.44031         0.009009     -0.001048     -0.005089
Li	      5.79560      5.34265      0.10741        -0.003787      0.006865      0.007112
Li	      2.92271      6.86380      4.94662         0.002429     -0.005971      0.000024
Li	      4.34811      5.91558      2.60731        -0.001133     -0.001065     -0.003052
Li	      1.41444      2.68092      0.04607        -0.013746     -0.001922     -0.000619
Li	      4.39836      4.32440      4.61758         0.002576     -0.003825      0.006863
Li	      2.94699      3.59289      2.54842         0.004816     -0.006553     -0.008834
Sc	      4.31503      2.67720      0.04778         0.004167     -0.014043      0.012874
Mn	      4.47610      2.81166      7.22889         0.005904     -0.001493     -0.004836
V	      2.96579      8.67017      2.75491        -0.009207     -0.006859     -0.002956
Cr	      2.83284      5.27793      0.16876         0.010015      0.008666      0.009451
Fe	      1.50997      4.41635      4.82355        -0.004056     -0.002685      0.002240
Co	      5.82445      3.54784      2.40417        -0.008194     -0.019607      0.008685
Cu	      1.54502      2.80126      7.26875        -0.019816     -0.013976      0.009804
Cu	      5.83835      7.15562      4.88971         0.005882      0.001883     -0.012750
Ni	      1.44374      6.09035      2.55683        -0.005077     -0.008288     -0.004509
O	      5.78218      9.02609      6.36316        -0.000766     -0.001106      0.012045
O	      2.98408      8.99140      6.43209         0.001567     -0.000488     -0.005115
O	      7.29744      7.86357      3.65814         0.014502      0.009129      0.005645
O	      4.30025      8.03117      3.76424        -0.005498     -0.006795      0.003906
O	      3.08476      6.96920      1.47044        -0.001847     -0.009628     -0.007183
O	      5.80847      7.13477      1.18596         0.002011      0.011897     -0.009818
O	      7.23439      6.13218      5.94165         0.014299      0.009176      0.001207
O	      4.45272      6.51941      6.19490        -0.015962     -0.008497      0.004281
O	      2.87233      5.20018      3.76376         0.003564      0.016409      0.003578
O	      5.88188      5.18233      3.61336        -0.014102     -0.000233     -0.005735
O	      4.35614      4.33858      1.22430        -0.002089      0.019369     -0.012373
O	      1.38992      4.38900      1.34145        -0.002597      0.005071     -0.003936
O	      2.88432      3.55742      6.15974         0.008798      0.009390      0.002431
O	      5.65428      3.74459      6.02004        -0.010085     -0.013170      0.006941
O	      4.55584      2.74553      3.41478         0.018360      0.011340     -0.003592
O	      1.43931      2.61056      3.56877        -0.004257      0.006197      0.000680
O	      5.92298      1.66348      1.14845        -0.007697      0.001165      0.007816
O	      2.84031      1.60945      1.14347         0.013844     -0.001914     -0.007762
