# total energy = -216.79468775 eV
 
CRYSTAL
PRIMVEC
5.886129 0.032233 -0.023847 
1.376992 7.670206 0.005246 
1.615580 2.564951 7.203009 
PRIMCOORD
36 1
Li	      3.00337      1.74103      4.88338         0.002843      0.004784      0.008090
Li	      5.88075      1.83736      4.69464        -0.017397      0.003744     -0.003302
Li	      4.54877      0.88507      2.41065         0.001185      0.004507     -0.003114
Li	      5.89647      5.24257      0.07156         0.002598      0.004849     -0.000404
Li	      2.96414      6.73803      4.86082        -0.003142      0.005211      0.003423
Li	      4.38895      5.80799      2.47312        -0.005570      0.000301      0.003794
Li	      1.42636      2.56702     -0.03292         0.003239     -0.001745     -0.000031
Li	      4.39890      4.19997      4.62861        -0.008310      0.003631      0.006348
Li	      2.97931      3.48419      2.48505        -0.003697     -0.003559      0.003011
Sc	      4.33465      2.50658      0.03893        -0.002917     -0.012074      0.005611
Mn	      1.48979      4.25712      4.74086        -0.006888     -0.014641      0.002999
V	      3.02055      8.45030      2.50629        -0.001993      0.002785     -0.012019
Cr	      2.86551      5.14701      0.08435        -0.000632     -0.003673      0.012701
Fe	      5.94152      6.96233      4.78497         0.019583     -0.005512      0.000881
Co	      5.88026      3.44479      2.33137         0.006003     -0.004132     -0.006845
Cu	      3.00883     10.21772      7.17645         0.007383      0.010025      0.003301
Cu	      6.00213     10.16710      7.15725        -0.010299     -0.006171     -0.006732
Ni	      1.46160      5.96405      2.42048         0.011285      0.008906     -0.001755
O	      5.88822      8.52085      6.03945         0.009604      0.012267      0.004717
O	      3.10036      8.60298      6.21270         0.002492      0.001673      0.002068
O	      7.39691      7.73929      3.59570        -0.000250     -0.007774      0.006369
O	      4.33164      7.82814      3.59370        -0.005566     -0.000140     -0.006016
O	      3.05119      6.78030      1.39078         0.011368      0.001885     -0.001938
O	      6.04478      6.92247      1.12106         0.004892     -0.007020     -0.002873
O	      7.33335      5.87318      5.84233         0.021959      0.004852     -0.002714
O	      4.55078      6.16203      6.05929        -0.011127      0.001747      0.005318
O	      2.82924      5.05365      3.70079        -0.002161      0.007295      0.006142
O	      5.93294      5.24216      3.64646         0.005061     -0.013840      0.000850
O	      4.43991      4.24659      1.16693         0.000414     -0.000238     -0.002095
O	      1.41971      4.24209      1.24345        -0.003145     -0.007584      0.003136
O	      2.78435      3.42076      5.90359        -0.014916      0.009285     -0.020328
O	      5.88979      3.55842      5.80623        -0.013449      0.003652     -0.007905
O	      4.60049      2.66831      3.34691        -0.006369      0.001728      0.000202
O	      1.41321      2.61193      3.47926        -0.005672      0.001855      0.003317
O	      6.00321      1.57970      1.14391         0.013736     -0.012718     -0.013842
O	      2.86990      1.52664      1.14372        -0.000144      0.005838      0.009635
