# total energy = -217.18624172 eV
 
CRYSTAL
PRIMVEC
5.955022 -0.069348 0.093926 
1.261257 7.674938 0.030690 
1.734567 2.545346 7.243969 
PRIMCOORD
36 1
Li	      3.23763      1.68219      4.90235        -0.000547     -0.000264     -0.004008
Li	      5.96057      1.69043      4.88390        -0.003765     -0.005979      0.000047
Li	      5.84011      8.41206      2.52659         0.003178      0.004734     -0.000608
Li	      5.84144      5.13713      0.17028         0.000781      0.000334     -0.006336
Li	      3.04574      6.79845      4.98273        -0.003799     -0.008301      0.001336
Li	      4.42421      5.94582      2.42327         0.003205     -0.006953      0.002140
Li	      1.38656      2.51096     -0.01024        -0.005103     -0.001289      0.001089
Li	      4.44655      4.26980      4.77230         0.001181      0.000276      0.001488
Li	      3.03029      3.51696      2.53569         0.011532     -0.007811     -0.001976
Sc	      4.36740      2.49172      0.14535         0.013021      0.006218      0.005354
Mn	      1.65081      4.29145      4.84361        -0.005465      0.023053      0.000209
V	      1.60211      0.93969      2.61151         0.005972     -0.021065     -0.017780
Cr	      2.80521      5.05627      0.07860        -0.002700      0.011364      0.001783
Fe	      2.97753     10.10314      7.23353         0.002141     -0.007192      0.012701
Co	      5.87437      3.37313      2.48142        -0.012649      0.003404     -0.012876
Cu	      6.03336      6.83989      4.93495         0.003299     -0.011709      0.010165
Cu	      5.99540     10.10216      7.27431        -0.000248      0.003265      0.003330
Ni	      1.40552      5.94465      2.45350         0.011582      0.001753     -0.000023
O	      5.94281      8.44732      6.12600        -0.002849     -0.001173      0.002623
O	      3.13194      8.44495      6.21012        -0.000620      0.001076      0.000304
O	      7.42088      7.69521      3.63431        -0.002843     -0.001829      0.007423
O	      4.13707      7.79710      3.49169         0.006826     -0.000843     -0.000045
O	      2.79105      6.84718      1.19045         0.007517      0.008101      0.004215
O	      5.90740      6.76119      1.35624         0.001134      0.011200     -0.003903
O	      7.61019      5.67291      6.09501        -0.000414     -0.000791     -0.006259
O	      4.68605      6.01390      6.14173         0.004777     -0.005999     -0.001295
O	      2.87623      5.08576      3.70707        -0.004410     -0.004354      0.004765
O	      6.10599      5.03685      3.87590        -0.009978     -0.001330     -0.001923
O	      4.34956      4.21538      1.23315        -0.007388     -0.001167      0.003540
O	      1.35962      4.22257      1.30133         0.000285     -0.001608     -0.000160
O	      2.96757      3.41401      5.89600         0.003193      0.001371      0.001767
O	      6.23459      3.28946      6.14020        -0.013339      0.008465     -0.006768
O	      4.65926      2.61421      3.55115         0.000279     -0.003490     -0.001510
O	      1.53553      2.49922      3.52433         0.002168      0.007944      0.001635
O	      6.00226      1.59105      1.32355         0.002433      0.006118     -0.005658
O	      2.80530      1.52138      1.20781        -0.008385     -0.005530      0.005217
