# total energy = -103.45832988 eV
 
CRYSTAL
PRIMVEC
4.078489 -0.001782 -0.000831 
2.038017 4.303050 -6.217905 
2.037052 4.305865 2.073694 
PRIMCOORD
16 1
Li	      2.03482      4.28295      2.05196         0.002158      0.013039     -0.029744
Li	      2.03056      2.19948      0.02759        -0.002741      0.015453     -0.009352
Li	      4.07981      4.34651      0.04038         0.000831     -0.007881      0.013075
Li	      4.06980      6.47760     -2.04863         0.000556      0.000853      0.015376
Ti	      4.06830      2.11076     -1.89168        -0.014848     -0.240392      0.190175
Ti	      6.04474      6.48903     -4.10801        -0.053276      0.271230     -0.056749
Ni	      6.12219      4.32847     -2.06354         0.003165      0.006157      0.036411
Ni	      4.08530      4.26482     -4.19085         0.003952     -0.006906     -0.041130
O	      4.08351      4.10645     -2.14515         0.004037     -0.071566      0.115136
O	      6.11605      6.44394     -2.15164        -0.011852      0.002748     -0.056182
O	      4.07858      2.14466     -0.01722        -0.011823     -0.003554     -0.166047
O	      6.12010      4.56027     -0.04473         0.005480      0.266119      0.141226
O	      2.04294      2.21359     -2.03189         0.013819     -0.098100     -0.003704
O	      6.13173      4.45561     -4.14482        -0.009312      0.039820     -0.078598
O	      4.09793      6.38510     -4.18616         0.081233      0.091097      0.021369
O	      6.12703      8.35176     -4.16054        -0.011378     -0.278119     -0.091261
