# total energy = -222.36855670 eV
 
CRYSTAL
PRIMVEC
6.037938 -0.038071 0.024089 
1.334031 7.586583 -0.122007 
1.670097 2.232264 7.264721 
PRIMCOORD
36 1
Li	      3.08802      1.50552      4.74347        -0.008098      0.009395      0.000978
Li	      1.51526      0.92883      2.34376         0.005827     -0.005509     -0.003981
Li	      4.61817      7.18686      7.17558         0.005460      0.003989      0.016859
Li	      3.10278      6.56066      4.81182        -0.006525     -0.003166      0.008492
Li	      4.48230      2.52626      0.06813         0.005779      0.000404     -0.001304
Li	      1.47104      2.54522      0.13380         0.013783      0.005142      0.011602
Li	      4.52124      3.96193      4.79511         0.005302     -0.006892      0.010409
Li	      3.14209      3.10310      2.50541        -0.006277     -0.000688      0.008260
Li	      5.93038      3.20563      2.38431         0.011238      0.004039     -0.009565
Sc	      6.15645      1.50507      4.75117         0.002501      0.004413     -0.011298
Ti	      4.53439      2.34071      7.26116         0.021979      0.006208      0.009097
V	      1.52012      5.72778      2.28772        -0.012474     -0.010340     -0.013276
Cr	      5.91801      6.44840      4.85510        -0.006439      0.001751      0.002104
Fe	      4.46864      5.68229      2.33018        -0.007207     -0.008565      0.000932
Co	      5.99863      0.00065      0.02765         0.006009     -0.005030     -0.013561
Cu	      1.63468      4.05253      4.75864        -0.002604     -0.001411     -0.006300
Ni	      5.91116      4.97121     -0.11489         0.001433      0.014059      0.015339
Ni	      4.57279      0.79040      2.44153         0.001984      0.011784      0.004338
O	      6.06022      8.12687      6.01865        -0.012250     -0.021157      0.000219
O	      2.93415      8.32689      6.03797        -0.001025      0.001007      0.009708
O	      7.40644      7.30643      3.48938        -0.008512      0.001692     -0.006716
O	      4.67641      7.27912      3.62175        -0.004763     -0.011506      0.016479
O	      3.00100      6.65726      1.20551        -0.002669     -0.001791     -0.001811
O	      5.99278      6.65773      1.14419        -0.003021     -0.002342     -0.009495
O	      7.44315      5.68136      5.75443        -0.012263      0.002294     -0.018463
O	      4.64326      5.68349      5.84923         0.001331      0.006336     -0.005977
O	      2.91145      5.00514      3.41002         0.000478     -0.004035      0.005126
O	      6.03397      5.00689      3.47402        -0.004170      0.007441     -0.006920
O	      4.52500      4.17677      1.17512         0.003573      0.010180     -0.007214
O	      1.39379      4.34493      1.15858        -0.004924      0.000217      0.006108
O	      3.15990      3.03183      6.24958        -0.004474     -0.005782      0.003637
O	      6.01150      3.00360      6.21496        -0.003871     -0.001893      0.000425
O	      4.64159      2.35454      3.69332        -0.002877     -0.007781     -0.009741
O	      1.60363      2.43595      3.69489         0.013673      0.009062     -0.005761
O	      6.02317      1.46656      1.13820         0.003678      0.001779      0.000467
O	      3.01846      1.49254      1.20224         0.010415     -0.003303      0.000806
