# total energy = -222.12416034 eV
 
CRYSTAL
PRIMVEC
6.035966 -0.023309 0.033402 
1.352655 7.632561 -0.079411 
1.686161 2.288774 7.246932 
PRIMCOORD
36 1
Li	      3.06914      1.51317      4.69274        -0.006588      0.007934     -0.001751
Li	      1.58224      0.89611      2.37248        -0.000079     -0.005729     -0.006102
Li	      4.66040      7.30042      7.16839        -0.014938      0.008962     -0.003908
Li	      3.07641      6.50967      4.92145         0.007737      0.001197      0.006457
Li	      4.35994      2.66199     -0.03058        -0.001017      0.009574     -0.006650
Li	      1.54371      2.76294     -0.13722        -0.005850      0.005676      0.009776
Li	      4.54938      4.17853      4.80178         0.007006     -0.001125      0.005922
Li	      3.09096      3.12702      2.43992        -0.000310      0.006579     -0.004546
Li	      6.00223      3.22119      2.36210         0.009410     -0.000083     -0.005339
Sc	      6.19586      1.49241      4.74173         0.004293     -0.001068      0.000039
Ti	      4.43497      2.46899      7.16841         0.004560      0.003721      0.014590
V	      1.60577      5.76945      2.38359        -0.011333     -0.017365     -0.019880
Cr	      6.05278      6.56636      4.89491        -0.000430     -0.007690      0.000607
Fe	      4.51285      5.71875      2.40105         0.015229      0.001643      0.001581
Co	      5.93257      0.02657      0.04956        -0.011633     -0.013202      0.006678
Cu	      4.57130      0.75160      2.44004        -0.001536      0.011378     -0.001996
Ni	      7.61239      7.31283      7.21521         0.008237     -0.003763      0.005488
Ni	      1.60664      4.06221      4.81589        -0.002922      0.002305      0.005385
O	      6.10030      8.27609      6.06933         0.003903      0.006198     -0.001731
O	      2.95534      8.45191      6.11974        -0.008670      0.006090     -0.000005
O	      7.61955      7.27525      3.66041        -0.004315      0.002678     -0.004257
O	      4.75218      7.42994      3.54076        -0.013206     -0.003544      0.008229
O	      3.04329      6.72744      1.23633        -0.000044     -0.002323     -0.007265
O	      6.03878      6.75653      1.30463         0.003074     -0.003341     -0.005754
O	      7.51641      5.70517      5.98550        -0.001706     -0.003136     -0.002263
O	      4.61093      5.78878      5.91595         0.005209      0.007425     -0.008191
O	      3.01214      4.98496      3.48567         0.010408     -0.000341      0.008186
O	      6.13686      5.01862      3.58998         0.004730      0.002769      0.009255
O	      4.56210      4.24330      1.24563         0.015595     -0.002355     -0.007495
O	      1.42598      4.42056      1.22293        -0.001200      0.008161      0.010916
O	      3.05600      3.12657      6.11072        -0.001875     -0.004192      0.000162
O	      6.01367      3.07407      6.13743        -0.007608      0.000030      0.000135
O	      4.62823      2.24951      3.56552         0.001334     -0.005321     -0.003514
O	      1.57964      2.41620      3.65084        -0.008344     -0.000692      0.000577
O	      5.89393      1.41150      1.25218        -0.002972     -0.004853      0.002529
O	      2.86521      1.58184      1.04312         0.005852     -0.012199     -0.005866
