# total energy = -222.24313625 eV
 
CRYSTAL
PRIMVEC
6.043260 -0.068555 0.077303 
1.296572 7.608078 -0.099239 
1.723441 2.241813 7.266304 
PRIMCOORD
36 1
Li	      3.01955      1.54393      4.79057        -0.006114     -0.007401      0.002781
Li	      1.52830      0.92296      2.41470        -0.003165      0.009866     -0.010933
Li	      2.93147      4.94727     -0.03755        -0.004667     -0.007918     -0.002371
Li	      3.08741      6.61003      4.83720        -0.004622     -0.000386      0.000114
Li	      4.48320      2.55418      0.05206         0.005263     -0.006778      0.003704
Li	      1.52410      2.51383      0.15380         0.002966     -0.001822     -0.006459
Li	      4.62140      3.92180      4.85866         0.009052      0.008897     -0.009298
Li	      3.04457      3.19024      2.49713         0.000501     -0.007880      0.009634
Li	      6.06558      3.22755      2.54748         0.009822      0.001115     -0.002888
Sc	      4.60317      0.84582      2.51779        -0.005229      0.004976     -0.002689
Ti	      4.63884      2.28081      7.21152         0.010688      0.011340      0.010379
V	      1.50389      5.75420      2.29273        -0.001190     -0.006768      0.009534
Cr	      5.93921      6.46095      4.90586        -0.020557      0.002621     -0.018575
Fe	      4.43314      5.65135      2.37766         0.003414     -0.011288     -0.000616
Co	      6.01991     -0.04307      0.03559         0.004977      0.011394     -0.004506
Cu	      1.60572      4.04565      4.76364        -0.010700     -0.000880      0.007383
Ni	      7.62266      7.19281      7.20589        -0.005075     -0.014446     -0.007184
Ni	      6.21632      1.45936      4.86587         0.004811      0.000141     -0.008323
O	      6.10006      8.12991      6.07658         0.003540     -0.000040      0.007965
O	      2.95207      8.34936      6.03964        -0.000372     -0.014517     -0.004658
O	      7.37004      7.30182      3.53460        -0.000088      0.006730      0.000889
O	      4.63474      7.28142      3.66503         0.011894     -0.008161      0.019510
O	      2.99051      6.64646      1.23010         0.001389     -0.008390      0.011192
O	      5.98020      6.63839      1.17755         0.001328     -0.000974      0.004366
O	      7.43825      5.67759      5.79988        -0.005472      0.011738      0.017228
O	      4.66323      5.69315      5.90164        -0.001059      0.007843     -0.011205
O	      2.86302      5.00922      3.43849         0.007411      0.008840     -0.009027
O	      5.99962      5.02088      3.52329        -0.005479     -0.005122     -0.013962
O	      4.49589      4.15706      1.21823         0.004936      0.014876      0.012197
O	      1.37965      4.34308      1.18365        -0.003200      0.014981      0.005186
O	      3.25308      3.00151      6.25483        -0.004731     -0.006614     -0.001160
O	      6.11170      3.01006      6.23231        -0.002234     -0.000227      0.002426
O	      4.65913      2.35528      3.73007         0.004749      0.009528      0.005980
O	      1.58913      2.45798      3.69293        -0.004319     -0.013612     -0.004422
O	      6.07823      1.43937      1.17748         0.002530      0.007093     -0.000379
O	      3.05710      1.44005      1.22445        -0.000995     -0.008752     -0.011811
