# total energy = -221.80951459 eV
 
CRYSTAL
PRIMVEC
6.006325 -0.004463 0.013965 
1.369969 7.638813 -0.022149 
1.661594 2.353316 7.249202 
PRIMCOORD
36 1
Li	      3.00778      1.55205      4.69595        -0.003664     -0.000683     -0.005873
Li	      1.52365      0.93239      2.44292        -0.011107      0.003318     -0.011702
Li	      4.62000      7.31793      7.22940         0.011659     -0.007266      0.016127
Li	      3.17313      6.61801      4.87573         0.005886      0.003349      0.007056
Li	      4.36981      2.61944      0.01155         0.010248     -0.003045     -0.000157
Li	      1.57319      2.60083     -0.03346        -0.011568     -0.001060     -0.002273
Li	      4.56965      4.11539      4.82648        -0.006757     -0.002315     -0.006099
Li	      3.09191      3.25856      2.43494        -0.005396     -0.001788     -0.006924
Li	      6.00465      3.21266      2.48844        -0.013559     -0.004789     -0.003022
Sc	      7.59873      7.33254      7.20096        -0.006771     -0.014657     -0.006358
Ti	      4.46497      2.49225      7.19017        -0.004000     -0.018815      0.004990
V	      1.55373      5.85896      2.41593         0.020482      0.013340      0.009184
Cr	      5.95960      6.65375      4.87260         0.000147      0.012845      0.021619
Fe	      4.46648      5.80449      2.46503         0.000699     -0.003453     -0.011501
Co	      5.96401      0.05361      0.01166        -0.012094      0.019153     -0.016793
Cu	      6.10158      1.59865      4.76742        -0.008742     -0.001240     -0.008750
Ni	      1.57478      4.09739      4.82686         0.010298      0.005718      0.023341
Ni	      4.53383      0.86896      2.42637         0.002193      0.002024      0.008648
O	      6.08413      8.34390      6.08138         0.010345     -0.012443     -0.000078
O	      2.96607      8.51296      6.08542        -0.007088     -0.004124     -0.007751
O	      7.41728      7.45577      3.54787         0.005460     -0.006203      0.000398
O	      4.58304      7.42138      3.61922        -0.009522     -0.004115     -0.000934
O	      3.02127      6.73291      1.23634        -0.003026     -0.001407      0.001386
O	      5.98518      6.74209      1.22445         0.002979      0.012138      0.011137
O	      7.49915      5.78959      5.94847         0.008227     -0.003415      0.001677
O	      4.61274      5.81237      5.98300         0.003268      0.001894      0.009142
O	      2.93206      5.06488      3.51424        -0.004830      0.002090     -0.006352
O	      6.09169      5.10743      3.58728        -0.004449     -0.002253     -0.010116
O	      4.52699      4.27809      1.27705         0.013918      0.005563     -0.002973
O	      1.45867      4.42512      1.27749         0.007330     -0.002298     -0.000399
O	      3.10555      3.19300      6.15336        -0.006898     -0.000090     -0.006304
O	      6.01325      3.11064      6.09145        -0.001776     -0.007369      0.000144
O	      4.62756      2.40680      3.69170        -0.002078     -0.006734      0.001540
O	      1.49976      2.46234      3.68808        -0.000857      0.010486     -0.003179
O	      5.98287      1.49708      1.11842        -0.001438      0.004626     -0.001601
O	      3.01016      1.51954      1.12362         0.012480      0.013016      0.002748
