# total energy = -221.91471444 eV
 
CRYSTAL
PRIMVEC
5.984251 0.009993 -0.010553 
1.383498 7.652094 -0.026578 
1.631719 2.361275 7.227431 
PRIMCOORD
36 1
Li	      3.01482      1.51987      4.65538         0.001214      0.005452      0.000059
Li	      1.54651      0.90518      2.44844        -0.000333     -0.000521     -0.000381
Li	      4.59137      7.38996      7.17378         0.004293     -0.008730      0.002331
Li	      3.11960      6.70071      4.95261         0.001061      0.005852     -0.009426
Li	      4.37342      2.71432      0.01645        -0.000855      0.000500      0.001881
Li	      1.55777      2.77166     -0.06212        -0.011335      0.004114     -0.008389
Li	      4.55380      4.20422      4.82399        -0.008081      0.004088      0.002843
Li	      3.11837      3.17472      2.43010        -0.002961     -0.002577      0.000940
Li	      5.93346      3.20620      2.36779        -0.000036     -0.007549     -0.003443
Sc	      1.56178      4.07213      4.81752         0.006223      0.003635      0.007108
Ti	      4.49257      2.48372      7.11056        -0.017029      0.001945     -0.000868
V	      1.54303      5.82400      2.33142         0.003862      0.017944      0.006354
Cr	      5.95214      6.70293      4.87421        -0.000618     -0.000909     -0.005417
Fe	      4.45582      5.78788      2.40179         0.014533     -0.010050      0.000955
Co	      5.94988      0.01658      0.01042         0.003752      0.011386     -0.001134
Cu	      4.51639      0.82714      2.41411        -0.005961     -0.000896      0.005113
Ni	      7.52728      7.42455      7.16945        -0.000494      0.006041      0.012255
Ni	      6.07042      1.57792      4.72413         0.005218      0.004062      0.006071
O	      6.02885      8.40508      6.05643        -0.001143      0.001096     -0.000116
O	      2.93763      8.52697      6.10610         0.000189      0.002088     -0.005080
O	      7.34395      7.47702      3.48067         0.008130      0.003498     -0.000495
O	      4.56353      7.44310      3.58594        -0.000724      0.006851      0.003122
O	      2.97423      6.74574      1.21389        -0.006994     -0.000908      0.011306
O	      5.95708      6.76131      1.21057         0.000712     -0.000884     -0.001150
O	      7.47663      5.84923      5.92642         0.005005     -0.009989     -0.007067
O	      4.58815      5.85385      5.95842        -0.005535      0.000538      0.005702
O	      2.92123      5.08400      3.50973        -0.001466     -0.006439     -0.008637
O	      6.06749      5.11010      3.59409         0.009549      0.000158     -0.006156
O	      4.51091      4.28550      1.26246        -0.003630     -0.008379     -0.003207
O	      1.42597      4.40758      1.26154         0.004836     -0.009132     -0.006305
O	      3.10249      3.23775      6.11868         0.002106     -0.009989      0.009255
O	      5.98200      3.19045      6.06936         0.003538      0.005953     -0.004271
O	      4.57247      2.36265      3.58699        -0.004776     -0.008224     -0.005306
O	      1.54002      2.48211      3.62918        -0.002881     -0.002160     -0.006023
O	      5.93073      1.45717      1.11953        -0.003006     -0.000445     -0.001495
O	      3.04601      1.47593      1.16037         0.003637      0.002580      0.009068
