# total energy = -221.74755972 eV
 
CRYSTAL
PRIMVEC
6.090080 -0.148607 0.166220 
1.205288 7.579159 -0.087869 
1.814250 2.207814 7.290898 
PRIMCOORD
36 1
Li	      3.13701      1.48246      4.78869         0.002631      0.002358      0.000278
Li	      1.53285      0.88403      2.40913        -0.000501      0.004462     -0.001278
Li	      2.91100      4.84816      0.03277        -0.000871     -0.004061      0.006842
Li	      3.20854      6.45238      4.93054        -0.000773      0.003065      0.007322
Li	      4.33865      2.47770      0.06724        -0.008400      0.002975     -0.012958
Li	      1.62289      2.49388      0.10343        -0.005591     -0.001853      0.007129
Li	      4.69688      3.84638      4.96448         0.006800     -0.003762     -0.000158
Li	      3.24026      3.02179      2.60691         0.006452      0.001061      0.002867
Li	      6.05795      3.06458      2.61095         0.001642     -0.005337      0.002309
Sc	      7.71508      7.02806      7.28345         0.005490     -0.013585     -0.007485
Ti	      4.75280      2.23052      7.34874         0.007336      0.000363      0.020163
V	      1.45771      5.77056      2.36688         0.000350     -0.004533     -0.007176
Cr	      5.95185      6.42593      4.92834         0.021821      0.000211      0.003951
Fe	      4.41719      5.64995      2.48885        -0.017760      0.001157     -0.004983
Co	      6.05818     -0.04822      0.09142        -0.006088      0.009166      0.013670
Cu	      1.55243      4.02803      4.79719         0.002965      0.005930      0.005902
Ni	      6.26123      1.38250      4.89186         0.002121      0.004363      0.000115
Ni	      4.65664      0.72692      2.54024        -0.003265     -0.004883     -0.004834
O	      6.17007      8.03978      6.19780         0.002073      0.001474      0.005386
O	      2.95437      8.33987      6.02390        -0.012290     -0.006058     -0.004341
O	      7.38141      7.21670      3.57864         0.005012     -0.019501     -0.008166
O	      4.56216      7.21089      3.68937        -0.010645      0.003860      0.004451
O	      2.98530      6.58891      1.28607         0.004654      0.004666      0.001422
O	      5.92514      6.57161      1.25559        -0.002743      0.011531     -0.003682
O	      7.51072      5.50442      5.96444        -0.012580      0.018851      0.000165
O	      4.62749      5.57879      6.04074         0.001177     -0.003628      0.004997
O	      2.76301      4.95834      3.51381        -0.018290      0.008372     -0.007178
O	      5.98299      4.93854      3.57456         0.009032     -0.000269      0.010359
O	      4.45367      4.13651      1.32095        -0.006092     -0.001579     -0.016446
O	      1.31002      4.38362      1.18653        -0.001585      0.001446      0.006718
O	      3.40175      2.92244      6.33800         0.001662     -0.001051     -0.005696
O	      6.30645      2.95944      6.25431         0.007691     -0.001405     -0.000938
O	      4.72586      2.23763      3.80045         0.002935      0.003472      0.007029
O	      1.62262      2.50204      3.72879         0.004461     -0.003287     -0.006067
O	      6.13823      1.34994      1.26791         0.011167     -0.006213     -0.014190
O	      3.10755      1.41448      1.26308         0.000004     -0.007778     -0.005497
