# total energy = -222.01136259 eV
 
CRYSTAL
PRIMVEC
6.048970 -0.029920 0.052987 
1.347584 7.587479 -0.096490 
1.712738 2.255441 7.255414 
PRIMCOORD
36 1
Li	      3.14872      1.52711      4.66066         0.001126     -0.001488      0.002081
Li	      1.58002      0.84005      2.38468         0.003460     -0.000335     -0.001261
Li	      3.00226      4.94159     -0.04565        -0.007264      0.008427     -0.001131
Li	      3.20526      6.52622      4.93229        -0.004543     -0.002300      0.002858
Li	      6.07273      4.85882      7.22963         0.004152      0.001467     -0.002233
Li	      3.23442      4.96842      7.20351         0.014746     -0.008152      0.020117
Li	      4.57263      4.10246      4.76708         0.001367     -0.003185     -0.000188
Li	      3.04608      3.07895      2.52958         0.004680      0.004135      0.002779
Li	      6.03126      3.17773      2.36516        -0.000865      0.001484      0.004361
Sc	      6.13375      1.53096      4.70917        -0.003940     -0.003107      0.005522
Ti	      4.45644      2.39996      7.15560         0.003004     -0.012667     -0.005734
V	      1.60951      5.68246      2.35659        -0.001444      0.007850      0.012480
Cr	      6.00981      6.55600      4.88692         0.005769      0.002726     -0.003219
Fe	      4.52382      5.72161      2.43384        -0.007990     -0.004993     -0.001311
Co	      7.65713      2.25078      7.30464         0.003304     -0.008875     -0.013511
Cu	      7.66556      7.24981      7.23271         0.004697      0.011382     -0.009315
Ni	      1.62766      4.05299      4.84338        -0.002875      0.001257      0.001030
Ni	      4.56331      0.77372      2.42155         0.003441      0.009707      0.000173
O	      5.94603      8.32235      5.96230         0.005118     -0.001661     -0.006862
O	      2.86191      8.28121      6.12848         0.002473      0.011110     -0.003352
O	      7.44037      7.32670      3.50601        -0.006608      0.011195      0.000924
O	      4.63894      7.30719      3.58654        -0.001274      0.004933      0.001022
O	      3.05785      6.62753      1.21170        -0.000984      0.003231      0.000506
O	      6.07235      6.52311      1.20510        -0.000726      0.000540      0.004804
O	      7.54160      5.80955      5.98659        -0.010405     -0.008416     -0.008987
O	      4.65938      5.70317      5.97565        -0.003270     -0.005599      0.005376
O	      3.01539      4.98799      3.52813        -0.000572      0.004808     -0.004531
O	      6.17917      4.98117      3.62371        -0.000991      0.000904     -0.011383
O	      4.70470      4.23761      1.16445        -0.010915     -0.008207      0.008849
O	      1.59121      4.24953      1.33344        -0.006508     -0.014346     -0.014903
O	      3.07249      3.13707      6.15929         0.001073     -0.000740      0.006421
O	      6.07425      3.04626      6.17830         0.002137     -0.002355      0.006456
O	      4.65971      2.38849      3.61908        -0.000707     -0.007055      0.002393
O	      1.61316      2.38867      3.70476         0.009039     -0.003288      0.000121
O	      6.01935      1.39538      1.16931         0.002309     -0.000273      0.000681
O	      3.03725      1.44476      1.17404        -0.000012      0.011884     -0.001035
