# total energy = -222.34421008 eV
 
CRYSTAL
PRIMVEC
5.938613 0.022018 -0.030117 
1.388656 7.753897 0.117867 
1.600702 2.536504 7.296328 
PRIMCOORD
36 1
Li	      2.96309      1.67343      4.82851         0.008590      0.010723      0.009207
Li	      1.47106      1.00095      2.44111         0.001070     -0.004847      0.023322
Li	      2.97929      5.05297      0.12344         0.000037      0.005963     -0.008033
Li	      3.02667      6.92507      4.96642         0.003703      0.012103      0.012589
Li	      4.48632      2.71725      0.08772         0.003445      0.002423     -0.013199
Li	      1.38052      2.63745      0.12351        -0.008606      0.006433      0.000020
Li	      4.48754      4.22472      4.83376         0.003111     -0.010641     -0.004152
Li	      2.95928      3.45048      2.39993         0.006398      0.000442     -0.017151
Li	      5.95758      3.36777      2.44785         0.006862      0.002524     -0.010532
Sc	      4.54079      0.97984      2.43461         0.016883     -0.010644      0.003872
Ti	      4.51065      2.77892      7.20134         0.002801      0.006991     -0.014155
V	      1.54382      5.91016      2.46843        -0.003390     -0.014979      0.004402
Cr	      5.88727      6.79893      5.00481         0.004524     -0.006631     -0.014585
Fe	      4.43121      5.88435      2.47612        -0.001133     -0.015685      0.001569
Co	      0.01197      0.02884     -0.00525        -0.012057      0.012603      0.013250
Cu	      6.03123      1.72208      4.82496        -0.021961      0.000078      0.000180
Ni	      7.47135      7.67905      7.30686         0.002665      0.007536      0.002535
Ni	      1.54172      4.23803      4.94551         0.004568      0.000458     -0.002533
O	      6.06441      8.61058      6.05608        -0.001588      0.004087     -0.006711
O	      2.82170      8.72886      6.10311         0.008864     -0.005699      0.014649
O	      7.32220      7.47814      3.54444        -0.009580      0.007288      0.007380
O	      4.59176      7.56080      3.74833        -0.004190      0.001577      0.004212
O	      2.97367      6.81098      1.31712        -0.002137      0.006211     -0.012246
O	      5.82179      6.86924      1.28402        -0.001308      0.007028     -0.008999
O	      7.37734      6.08948      5.94996        -0.001065     -0.002708     -0.005345
O	      4.60487      6.14967      6.05088         0.002909     -0.000311      0.002127
O	      2.91266      5.13572      3.58284         0.000475     -0.016973      0.002146
O	      5.98716      5.24137      3.71369        -0.004243     -0.005562     -0.002119
O	      4.47023      4.35417      1.31467        -0.000023     -0.005350     -0.007538
O	      1.41722      4.47215      1.34615        -0.003822     -0.004816     -0.019241
O	      3.12830      3.42135      6.15853         0.003219      0.000102      0.011546
O	      5.90846      3.51209      6.24462        -0.006894      0.001811      0.021793
O	      4.62507      2.49037      3.75179         0.007879      0.000754     -0.003845
O	      1.42612      2.54010      3.83085         0.006630      0.004130     -0.006770
O	      5.95242      1.67474      1.19189        -0.009814     -0.005423      0.009244
O	      2.94218      1.58218      1.21005        -0.002821      0.009006      0.013111
