# total energy = -221.70923895 eV
 
CRYSTAL
PRIMVEC
5.996506 -0.005881 -0.004140 
1.365922 7.638779 -0.042348 
1.636527 2.337876 7.217596 
PRIMCOORD
36 1
Li	      3.06221      1.54047      4.59005        -0.001762     -0.005797      0.002381
Li	      1.51148      0.90875      2.41792        -0.003160      0.008526     -0.004461
Li	      4.57238      7.32083      7.16410         0.013578      0.002251      0.011536
Li	      3.13984      6.67702      4.92029         0.002407      0.006414     -0.000890
Li	      4.36705      2.68289      0.00750        -0.012878     -0.005251      0.001191
Li	      1.52883      2.72290      0.00583        -0.005383     -0.004192     -0.006839
Li	      4.56451      4.09184      4.76003         0.002263     -0.005928      0.002645
Li	      3.13767      3.14722      2.47218         0.000111     -0.007186      0.000805
Li	      5.92991      3.19527      2.37362        -0.002772     -0.004801     -0.000307
Sc	      1.56250      4.04458      4.81021        -0.000870     -0.001660     -0.005532
Ti	      4.49128      2.49937      7.14409         0.008554      0.020488      0.019608
V	      1.53637      5.85454      2.34935        -0.005164     -0.008035     -0.001516
Cr	      5.94133      6.65083      4.85612        -0.004980      0.011851      0.000735
Fe	      4.45205      5.79629      2.40876         0.012102     -0.005617     -0.007395
Co	      5.95955      0.00972      0.00764        -0.008718     -0.000480     -0.014172
Cu	      7.52434      7.39349      7.16717         0.002205      0.000240      0.007301
Ni	      6.06775      1.54950      4.72160         0.007349      0.005135      0.002711
Ni	      4.52792      0.85786      2.41318        -0.004215      0.000399     -0.005510
O	      6.07567      8.31366      6.05688        -0.006918     -0.010842     -0.009415
O	      2.90471      8.46482      6.10152         0.000680      0.003752      0.001703
O	      7.38213      7.40121      3.47276        -0.005367     -0.008574     -0.002072
O	      4.55890      7.39962      3.58558         0.006481     -0.005995      0.016078
O	      2.98769      6.73102      1.20137        -0.007687     -0.000193      0.003403
O	      5.92946      6.70858      1.16148         0.006046      0.000370      0.004199
O	      7.48626      5.84170      5.94826         0.000376     -0.000255     -0.004352
O	      4.58695      5.79434      5.93660         0.004340      0.000419      0.000376
O	      2.90866      5.02773      3.46754         0.001223      0.001308     -0.004386
O	      6.08288      5.07108      3.58110         0.006036      0.006068      0.005071
O	      4.52573      4.27173      1.23188         0.002821      0.001434     -0.002613
O	      1.37310      4.43054      1.21130         0.003891      0.007152      0.005836
O	      3.09476      3.16432      6.09270        -0.015850      0.003149     -0.005795
O	      6.00716      3.14981      6.08233         0.004315      0.003372     -0.003152
O	      4.58438      2.41081      3.63497        -0.005749      0.000834     -0.001687
O	      1.54404      2.46199      3.63564         0.001461      0.008426      0.007232
O	      5.97685      1.46017      1.08971        -0.000812      0.003362      0.000967
O	      2.99885      1.51400      1.12781         0.006048     -0.020144     -0.013684
