# total energy = -221.67221174 eV
 
CRYSTAL
PRIMVEC
6.003220 -0.010059 0.011374 
1.362296 7.654008 -0.032171 
1.655499 2.347770 7.239719 
PRIMCOORD
36 1
Li	      2.94715      1.58928      4.68219        -0.000143      0.006362      0.000093
Li	      1.51962      0.93292      2.41787        -0.001532      0.000119     -0.007777
Li	      4.61345      7.31055      7.20805        -0.008697      0.002709      0.000411
Li	      3.13949      6.62749      4.92719         0.006356     -0.004467      0.011927
Li	      4.38521      2.67595     -0.04906         0.001785      0.003374     -0.002452
Li	      1.43964      2.68274     -0.06000         0.007612      0.007672     -0.005010
Li	      4.56675      4.12916      4.79577         0.004610     -0.007967      0.005175
Li	      2.94882      3.24370      2.50938         0.014880      0.001620     -0.001215
Li	      6.05526      3.32104      2.50048         0.004086     -0.004190     -0.018880
Sc	      4.54445      0.92367      2.45333         0.004951      0.000477      0.008891
Ti	      4.49778      2.47885      7.12106         0.002094     -0.001577     -0.004134
V	      1.56561      5.83484      2.37736        -0.006129     -0.009958     -0.011360
Cr	      5.98024      6.63664      4.89638        -0.009576      0.001168     -0.002241
Fe	      4.46812      5.77864      2.42684        -0.005799      0.000283      0.003458
Co	      5.96423     -0.00278     -0.00796         0.004487     -0.005904      0.007787
Cu	      7.57107      7.39086      7.21274        -0.005214      0.003503      0.009664
Ni	      1.57966      4.07730      4.82799        -0.006848     -0.003883     -0.001188
Ni	      6.12728      1.57096      4.77843         0.004755     -0.001094     -0.002449
O	      6.10654      8.32481      6.09511         0.000536      0.002799      0.003409
O	      2.93440      8.46670      6.13680        -0.003716      0.002522     -0.000822
O	      7.39722      7.43201      3.49794        -0.000000      0.005385      0.002903
O	      4.58410      7.41437      3.61140         0.005434     -0.005041     -0.002611
O	      3.01517      6.72343      1.22867         0.000090     -0.009112     -0.008614
O	      5.97110      6.70769      1.18551        -0.005530     -0.000493      0.000422
O	      7.50548      5.84956      5.95616        -0.003997      0.001757      0.001134
O	      4.61113      5.80086      5.96326         0.003195      0.007339      0.008413
O	      2.93105      5.05092      3.48053        -0.011181      0.002656      0.001291
O	      6.09508      5.09715      3.58809        -0.005368      0.001383      0.002453
O	      4.56361      4.26824      1.23452        -0.002928      0.002250     -0.001283
O	      1.41033      4.41547      1.24023        -0.011658      0.007330     -0.005708
O	      3.09670      3.14121      6.11132         0.007794     -0.004163      0.002742
O	      6.01939      3.13599      6.13365         0.011695     -0.006030      0.001470
O	      4.57817      2.44047      3.65624         0.001703      0.005721      0.002184
O	      1.52517      2.47161      3.65419        -0.002815      0.001828     -0.003981
O	      6.02036      1.46664      1.09616         0.000714      0.001853      0.002244
O	      3.01094      1.48497      1.14359         0.004351     -0.006227      0.003654
