# total energy = -231.99231696 eV
 
CRYSTAL
PRIMVEC
6.102216 -0.015122 0.061012 
1.379134 7.636777 -0.057195 
1.741186 2.306644 7.312417 
PRIMCOORD
36 1
Li	      3.20418      1.56856      4.75081         0.003495     -0.009933     -0.000954
Li	      1.54593      0.91090      2.33682         0.002994     -0.011403      0.008911
Li	      4.69284      7.30363      7.24718        -0.002915      0.004042     -0.001962
Li	      3.26507      6.56876      5.03196        -0.004090      0.006678     -0.002308
Li	      4.41225      2.67047     -0.03558        -0.010223      0.002993     -0.007696
Li	      1.55515      2.65335      0.04983         0.007090     -0.000957      0.015087
Li	      4.69245      4.13120      4.89224        -0.006952      0.005754      0.001448
Li	      2.99617      3.23707      2.56626         0.000970     -0.006116      0.004920
Li	      6.12577      3.24783      2.40173         0.004276     -0.004360     -0.007414
Sc	      6.30435      1.52859      4.83530        -0.002305     -0.010557      0.007589
Sc	      4.62337      0.88562      2.39210        -0.015685     -0.008670      0.009307
Ti	      4.52866      2.42171      7.16078         0.001423     -0.010842      0.015622
V	      1.61379      5.73758      2.39694         0.004248      0.000025     -0.019668
Cr	      6.06936      6.62686      4.95154        -0.009794      0.005207     -0.007788
Fe	      4.54653      5.76786      2.47166         0.006046      0.008014     -0.007793
Co	      6.06607      0.01602      0.04544        -0.001028     -0.003489     -0.005636
Cu	      5.99438      5.00449      0.01261         0.005212      0.010124      0.004414
Ni	      1.67767      4.11506      4.90329        -0.002159      0.004699     -0.003753
O	      6.01243      8.40990      6.03242        -0.000864      0.004075     -0.005885
O	      2.89050      8.23745      6.16482        -0.000248      0.002743     -0.003443
O	      7.49112      7.43051      3.54646        -0.003980     -0.002505      0.002277
O	      4.69575      7.36257      3.63567         0.006730     -0.000347      0.006459
O	      3.06518      6.69599      1.23282         0.006127      0.004054      0.005204
O	      6.07867      6.52819      1.26094         0.002295     -0.016016     -0.012881
O	      7.58577      5.88290      6.06071        -0.007800      0.005261      0.005619
O	      4.73477      5.77081      6.04836        -0.000382      0.004716      0.004272
O	      3.02774      5.05563      3.56919        -0.003832     -0.008715      0.012609
O	      6.25776      5.04440      3.69179         0.004461     -0.005259      0.000014
O	      4.73010      4.27325      1.21560        -0.001225      0.003478      0.004121
O	      1.62131      4.29264      1.39257         0.003225     -0.015760      0.001119
O	      3.22587      3.20887      6.15024        -0.012446      0.007022     -0.012413
O	      6.13763      3.08367      6.22940         0.001311      0.006853     -0.003116
O	      4.74610      2.38189      3.67716         0.000252      0.010849      0.003685
O	      1.67228      2.42433      3.78875         0.005629      0.004799     -0.011213
O	      6.13277      1.55777      1.24627         0.017412      0.008260      0.007948
O	      3.05620      1.46363      1.16676         0.002733      0.005283     -0.006702
