# total energy = -232.18988469 eV
 
CRYSTAL
PRIMVEC
6.080561 -0.014371 0.018509 
1.374122 7.681355 -0.064871 
1.683130 2.323134 7.304165 
PRIMCOORD
36 1
Li	      3.07341      1.54233      4.71743        -0.009070      0.010059     -0.000815
Li	      1.53313      0.96923      2.32674        -0.019116     -0.001106     -0.014961
Li	      4.64093      7.40100      7.20284        -0.009823      0.000449     -0.011267
Li	      3.17506      6.64315      4.92330         0.010632      0.001028      0.001859
Li	      4.38660      2.61267      0.00902         0.002252     -0.003219      0.006234
Li	      1.67780      2.70642     -0.15677         0.003520     -0.001935     -0.003564
Li	      4.60160      4.19509      4.88573         0.002755      0.001821      0.013233
Li	      3.11560      3.18261      2.47513        -0.010276      0.005421     -0.002966
Li	      6.03343      3.19723      2.40665        -0.004246      0.009872     -0.000767
Sc	      7.67105      7.33075      7.26049         0.015323     -0.002188      0.004881
Sc	      6.25935      1.52953      4.76158        -0.015672      0.008646     -0.002617
Ti	      4.47651      2.51899      7.21085         0.004206      0.000968      0.002198
V	      1.60246      5.85416      2.43990        -0.010494      0.004784     -0.008550
Cr	      6.06579      6.62245      4.90646         0.021031      0.001521      0.000257
Fe	      4.51290      5.79725      2.44271        -0.003221     -0.002596      0.009978
Co	      6.00698      0.08160      0.00924        -0.011381      0.002955     -0.004103
Cu	      4.58155      0.77087      2.46248        -0.007596     -0.026354      0.003048
Ni	      1.62826      4.11028      4.84450        -0.004859     -0.008595     -0.005750
O	      6.16515      8.32282      6.12285         0.010970      0.016589     -0.001502
O	      2.96077      8.42814      6.08122        -0.006597     -0.006411     -0.016461
O	      7.64445      7.32871      3.68136         0.012127      0.000567      0.008966
O	      4.76891      7.48515      3.60031        -0.000286     -0.001380      0.024776
O	      3.05339      6.78539      1.24818        -0.002802     -0.003412     -0.001279
O	      6.01187      6.78087      1.35958         0.014602      0.011427     -0.005799
O	      7.57393      5.74296      6.04333         0.006712     -0.014899     -0.014881
O	      4.66292      5.84546      5.96939         0.005518      0.003975     -0.011002
O	      3.01101      5.05316      3.52432         0.012346     -0.003451      0.012047
O	      6.18020      5.07535      3.62190         0.008194     -0.011121      0.011977
O	      4.58265      4.29071      1.27257         0.011552     -0.006099      0.010569
O	      1.45445      4.47094      1.26061        -0.002936      0.004497     -0.006643
O	      3.16903      3.19278      6.10497        -0.004703      0.005339     -0.014185
O	      6.03039      3.11151      6.15561        -0.000067     -0.010757     -0.002230
O	      4.64286      2.25517      3.59651         0.010047      0.010761      0.008384
O	      1.58052      2.46039      3.68168        -0.000418      0.001563      0.009155
O	      5.90436      1.48859      1.34229        -0.004511      0.007757      0.013569
O	      2.87871      1.60152      1.03084        -0.023715     -0.006475     -0.011790
