# total energy = -221.84201257 eV
 
CRYSTAL
PRIMVEC
5.990328 -0.002992 0.001448 
1.368084 7.634792 -0.027622 
1.642684 2.349674 7.226709 
PRIMCOORD
36 1
Li	      3.03327      1.48579      4.67647        -0.001772      0.003263     -0.001313
Li	      1.51239      0.90169      2.43985        -0.001584     -0.005594     -0.012674
Li	      4.60064      7.30677      7.20363         0.012685     -0.001353      0.017933
Li	      3.12954      6.69184      4.93054         0.003302     -0.001015     -0.003090
Li	      4.38730      2.71937      0.03438        -0.002970     -0.006602      0.004420
Li	      1.51859      2.70682     -0.00592        -0.010662     -0.002802     -0.003871
Li	      4.56796      4.12475      4.80890        -0.006006     -0.003663     -0.011322
Li	      3.12934      3.21995      2.37778        -0.001860      0.003466     -0.004736
Li	      5.93317      3.19145      2.37028        -0.004174     -0.001835     -0.007726
Sc	      1.58251      4.08761      4.83311         0.003678      0.005047      0.002189
Ti	      4.45388      2.48223      7.17112        -0.006994      0.002469      0.005149
V	      1.53019      5.83505      2.34484         0.009544     -0.007012     -0.012134
Cr	      5.95191      6.66554      4.87184        -0.005818      0.010598      0.003422
Fe	      4.46549      5.78352      2.42606         0.006633     -0.008525      0.003522
Co	      5.95084      0.02128      0.01426        -0.004493      0.004215     -0.007595
Cu	      6.06582      1.55673      4.75170        -0.000838      0.009091     -0.000985
Ni	      7.53666      7.39557      7.17952         0.015117      0.000866      0.003719
Ni	      4.52364      0.85333      2.41630         0.008048     -0.001734      0.003239
O	      6.04789      8.36777      6.02865        -0.000310     -0.004564      0.006099
O	      2.91456      8.49467      6.06303        -0.004304      0.003273     -0.008469
O	      7.39614      7.44164      3.52936        -0.003888     -0.001301      0.008104
O	      4.56165      7.39937      3.59415        -0.003504     -0.018162     -0.003303
O	      2.99084      6.73087      1.20026         0.002106      0.003531     -0.004838
O	      5.96329      6.73866      1.20502        -0.002543      0.002591     -0.004545
O	      7.47054      5.80389      5.94371         0.005534      0.006932      0.004318
O	      4.59450      5.80894      5.96339         0.010231      0.006972     -0.001887
O	      2.91622      5.03217      3.49684         0.001076     -0.009853      0.007993
O	      6.08813      5.08464      3.59182         0.003910      0.004764      0.001479
O	      4.50791      4.27195      1.27374        -0.003041     -0.011891      0.003231
O	      1.43319      4.41247      1.26531         0.000948      0.011335      0.005382
O	      3.08898      3.19694      6.11236        -0.010918     -0.009312     -0.006911
O	      5.99119      3.12098      6.04604        -0.002874      0.006725      0.003879
O	      4.60878      2.40248      3.66510        -0.001897     -0.006642      0.008632
O	      1.49740      2.43152      3.65586        -0.001804      0.005664     -0.001786
O	      5.96696      1.48412      1.09755        -0.009782      0.007328      0.001369
O	      3.00897      1.51128      1.11493         0.009224      0.003731      0.003107
