# total energy = -232.13290741 eV
 
CRYSTAL
PRIMVEC
6.066732 -0.022483 0.035311 
1.360777 7.698365 -0.026227 
1.695716 2.359182 7.294763 
PRIMCOORD
36 1
Li	      3.06410      1.50034      4.71869        -0.017973     -0.004320     -0.002040
Li	      1.47203      0.97951      2.38801        -0.001614     -0.000400     -0.008458
Li	      4.62424      7.46578      7.21042        -0.001912      0.005048     -0.002276
Li	      3.18826      6.76912      4.93647         0.002812      0.005914     -0.000706
Li	      4.39993      2.64040      0.08727        -0.008953      0.005572     -0.002720
Li	      1.68069      2.74937     -0.08278         0.020974     -0.013482      0.003650
Li	      4.63606      4.24145      4.94087        -0.004526     -0.009372     -0.003320
Li	      3.15491      3.16653      2.45619        -0.004160      0.004577     -0.004341
Li	      6.01695      3.14013      2.44386        -0.004416      0.003671     -0.001041
Sc	      7.67706      7.41614      7.27218        -0.001067      0.015431     -0.018490
Sc	      1.59539      4.04991      4.83511         0.001263     -0.024006     -0.002865
Ti	      4.50908      2.55144      7.19763        -0.010032     -0.011181     -0.017782
V	      1.60118      5.92520      2.43756         0.011407      0.012569      0.011523
Cr	      6.05868      6.69077      4.94213         0.006706      0.012745     -0.004327
Fe	      4.50682      5.79857      2.47863         0.002918      0.017829      0.007619
Co	      5.99843      0.04929      0.01409        -0.002676     -0.003419     -0.003209
Cu	      4.58131      0.76711      2.47277         0.002174      0.008060      0.009320
Ni	      6.19212      1.50389      4.81040         0.002711      0.000044      0.006307
O	      6.14453      8.38145      6.15411         0.012933     -0.007854     -0.003464
O	      2.98443      8.48423      6.09318        -0.005553     -0.001267      0.015836
O	      7.62622      7.34278      3.68805         0.009804     -0.016521     -0.004005
O	      4.74547      7.49275      3.63225         0.004376     -0.001995     -0.002615
O	      3.03830      6.80531      1.26263         0.006434      0.001414      0.006237
O	      5.98032      6.80074      1.38656        -0.008992      0.004516      0.009886
O	      7.55761      5.80304      6.07660         0.001335     -0.001660      0.004992
O	      4.65866      5.89926      5.99917         0.006361      0.005313      0.007436
O	      2.99567      5.05383      3.55474        -0.001610     -0.009135      0.001310
O	      6.16800      5.09266      3.68320        -0.007268      0.000611     -0.002306
O	      4.57373      4.29928      1.31659         0.009529     -0.011653      0.000621
O	      1.44360      4.50732      1.28168        -0.005946     -0.011111     -0.002120
O	      3.18734      3.24808      6.08174        -0.005752      0.004135      0.001429
O	      6.06088      3.15751      6.13501         0.004185      0.007248     -0.002204
O	      4.65439      2.22336      3.60710        -0.006788     -0.010241     -0.008311
O	      1.56613      2.46834      3.66227         0.001216      0.006436      0.008628
O	      5.88464      1.49222      1.32920        -0.002030     -0.008899     -0.001979
O	      2.87516      1.59016      1.02666        -0.005868      0.025386      0.003784
