# total energy = -232.28532925 eV
 
CRYSTAL
PRIMVEC
5.972118 0.004615 -0.010610 
1.374144 7.770279 0.106749 
1.626876 2.522656 7.329954 
PRIMCOORD
36 1
Li	      3.00354      1.59773      4.83811         0.000325      0.010631      0.007050
Li	      1.49500      0.95772      2.49021        -0.004851     -0.010795     -0.002635
Li	      2.99815      5.00158      0.11001         0.000493     -0.001069     -0.000321
Li	      3.12044      6.93315      5.09997         0.004015      0.002237      0.005084
Li	      4.40682      2.76572      0.05296        -0.000231     -0.000583     -0.000488
Li	      1.44975      2.73848      0.06869        -0.010240     -0.002038     -0.002372
Li	      4.54426      4.31276      4.95946         0.002995      0.008888      0.007899
Li	      2.99686      3.44258      2.37255        -0.006729      0.003917     -0.012668
Li	      5.96684      3.33844      2.40261        -0.006458      0.000299      0.001884
Sc	      1.55415      4.25747      5.00327        -0.001466      0.003728      0.004253
Sc	      4.56481      0.95203      2.45690         0.009208      0.010251      0.002708
Ti	      4.53227      2.73035      7.26773         0.004117     -0.001329      0.006606
V	      1.53806      5.93193      2.43871        -0.009597      0.010251      0.005697
Cr	      5.94262      6.85056      4.99537         0.002939      0.004827     -0.003961
Fe	      4.44270      5.89911      2.51437        -0.002905      0.005417     -0.007453
Co	      0.00296      0.02561      0.01436        -0.003773      0.002645      0.002723
Cu	      6.06579      1.69578      4.86137         0.003283     -0.012591     -0.004182
Ni	      7.50328      7.64941      7.34395        -0.003019      0.003455     -0.006176
O	      6.10058      8.63508      6.09385         0.000839     -0.003280     -0.003840
O	      2.81470      8.75472      6.12139        -0.004096     -0.003393      0.005737
O	      7.35989      7.46955      3.52879         0.012910     -0.003854     -0.003278
O	      4.53377      7.56408      3.71885        -0.005931     -0.007629     -0.006446
O	      2.98346      6.80986      1.27899        -0.000056     -0.007356      0.001869
O	      5.83916      6.86076      1.28566         0.004434     -0.002861      0.004651
O	      7.46911      6.02757      6.06610         0.001019     -0.009879      0.002147
O	      4.58452      6.09492      6.13166        -0.001900     -0.001953      0.005937
O	      2.89758      5.10411      3.58282        -0.004342      0.004599     -0.007274
O	      6.03925      5.21821      3.72576         0.011092     -0.000417     -0.001953
O	      4.48453      4.36200      1.35069         0.002200     -0.002867     -0.006944
O	      1.40763      4.48611      1.33892        -0.002583     -0.011559     -0.012024
O	      3.15599      3.39408      6.18626        -0.002552     -0.008484     -0.005411
O	      5.95150      3.48712      6.28749        -0.002010      0.010751      0.010260
O	      4.66304      2.46098      3.77967         0.002322      0.004287      0.003423
O	      1.44417      2.52910      3.83459         0.006874     -0.002922      0.000512
O	      5.98966      1.62954      1.21676         0.006517      0.009650      0.002707
O	      2.96217      1.54725      1.21650        -0.002842     -0.000975      0.006281
