# total energy = -231.86997360 eV
 
CRYSTAL
PRIMVEC
6.036190 0.007994 -0.013319 
1.392747 7.696858 -0.027094 
1.641393 2.375178 7.251336 
PRIMCOORD
36 1
Li	      3.01662      1.54178      4.69345         0.003588      0.008283     -0.003474
Li	      1.51927      0.95517      2.39284        -0.004703      0.003939     -0.006313
Li	      4.58615      7.39607      7.18721         0.009866      0.005998      0.011540
Li	      3.16447      6.75390      4.98039         0.012224     -0.000267     -0.000810
Li	      4.41557      2.74077     -0.00415        -0.012623     -0.007513      0.000281
Li	      1.53021      2.69642      0.02865        -0.007923     -0.006205     -0.005120
Li	      4.60253      4.15375      4.82218         0.005414     -0.004328      0.005734
Li	      3.06798      3.30366      2.45737         0.009457     -0.010884      0.003881
Li	      6.03678      3.28475      2.33717        -0.009194      0.003251      0.006933
Sc	      1.57946      4.09505      4.85751         0.009805     -0.007879     -0.017794
Sc	      4.59212      0.94191      2.41286        -0.019260      0.003541     -0.008343
Ti	      4.52493      2.50956      7.11276        -0.007184     -0.005647     -0.006846
V	      1.55225      5.88004      2.35963        -0.006984     -0.000934     -0.006350
Cr	      5.98935      6.71199      4.88814        -0.003583      0.001331      0.006313
Fe	      4.47522      5.83418      2.41751        -0.000024     -0.002158     -0.001173
Co	      6.02834     -0.00205     -0.00244         0.007701      0.012544     -0.004746
Cu	      7.57337      7.46967      7.20165        -0.008818      0.001686     -0.001704
Ni	      6.15015      1.56908      4.76846        -0.000689     -0.006224      0.010311
O	      6.10054      8.41590      6.06878         0.010056     -0.007842      0.002397
O	      2.91002      8.45974      6.09152        -0.005284      0.003748     -0.009324
O	      7.42980      7.47691      3.48606         0.000398      0.002027      0.008831
O	      4.60857      7.46825      3.60646        -0.002413     -0.004789      0.005529
O	      2.99965      6.78331      1.20864        -0.002838      0.010088      0.001306
O	      5.92721      6.72009      1.20661        -0.005503     -0.000284     -0.009307
O	      7.52383      5.89855      5.98143         0.000929      0.008716     -0.001618
O	      4.63790      5.86218      5.96845         0.011123     -0.008733      0.001571
O	      2.92289      5.08519      3.49483        -0.002663     -0.007056      0.007790
O	      6.14168      5.13199      3.60587        -0.009107     -0.001480      0.000377
O	      4.54649      4.30861      1.25083         0.006409      0.017428      0.000858
O	      1.42085      4.45153      1.25270        -0.011738      0.009257      0.007619
O	      3.18834      3.22939      6.06702        -0.001222     -0.002539      0.006867
O	      6.04997      3.18403      6.09864         0.013622     -0.002273     -0.004060
O	      4.61509      2.45303      3.63995        -0.003636     -0.001631     -0.002910
O	      1.56622      2.49819      3.68027         0.006847      0.000719     -0.000503
O	      6.04786      1.58401      1.14796         0.011907     -0.003782     -0.008409
O	      3.02791      1.49934      1.11738         0.006046     -0.000108      0.010661
