# total energy = -232.09665962 eV
 
CRYSTAL
PRIMVEC
6.128485 -0.092767 0.112165 
1.285812 7.642813 -0.090096 
1.779568 2.250236 7.328773 
PRIMCOORD
36 1
Li	      3.07892      1.55176      4.82068        -0.003853      0.000726     -0.000329
Li	      1.57121      0.90645      2.44971         0.006083     -0.007335     -0.001006
Li	      2.95962      4.92183     -0.01473        -0.004599     -0.002979      0.004787
Li	      3.24955      6.51583      4.93505         0.002277     -0.007195      0.004157
Li	      4.33238      2.57173     -0.05473        -0.012327     -0.002192      0.000832
Li	      1.65558      2.51504      0.00556        -0.002863     -0.010950      0.003675
Li	      4.70921      3.94421      4.95840         0.009597      0.000540      0.001041
Li	      3.04934      3.24143      2.50658         0.014602     -0.004520      0.013198
Li	      6.18440      3.20760      2.64754         0.004873     -0.002022     -0.002382
Sc	      7.74907      7.11499      7.31186         0.006944      0.006676      0.006654
Sc	      4.64718      0.84343      2.56126         0.002192     -0.007789     -0.021203
Ti	      4.73630      2.25952      7.32183        -0.004973      0.013307     -0.003290
V	      1.49877      5.82733      2.35986        -0.004240      0.006008      0.000550
Cr	      6.03298      6.51650      4.92612        -0.006366      0.010732      0.009864
Fe	      4.46613      5.70205      2.47711         0.001671      0.016499     -0.005170
Co	      6.10621     -0.01035      0.03825         0.001781      0.002491      0.006950
Cu	      1.58828      4.06175      4.81746         0.002690      0.000072      0.006060
Ni	      6.32689      1.45533      4.91572        -0.001482     -0.002337     -0.005907
O	      6.24369      8.16112      6.18901        -0.007101     -0.000737      0.002001
O	      3.00128      8.40351      6.11455         0.003374      0.000368     -0.000446
O	      7.45397      7.34081      3.55707        -0.003124      0.009343     -0.001825
O	      4.62536      7.34428      3.69229         0.001821     -0.002298     -0.006061
O	      3.01636      6.67452      1.23801         0.001450      0.000900     -0.002225
O	      5.97091      6.62840      1.25786        -0.005100     -0.005026      0.004094
O	      7.58682      5.61678      5.97899        -0.001910     -0.002283      0.000080
O	      4.69081      5.66887      6.04336        -0.004244     -0.003969     -0.004973
O	      2.85346      5.05056      3.48654         0.011529     -0.000060      0.001370
O	      6.06547      5.03960      3.56336        -0.006891     -0.002909      0.002503
O	      4.51994      4.18306      1.26885        -0.011657     -0.003549      0.003491
O	      1.37936      4.39473      1.21914         0.000350      0.002170     -0.000898
O	      3.43614      2.98921      6.30158        -0.001119     -0.005626     -0.006919
O	      6.29826      2.99094      6.30618        -0.000009     -0.003350     -0.002639
O	      4.76513      2.33978      3.79161         0.002996      0.016679      0.005664
O	      1.62339      2.47964      3.73578         0.000656      0.005709     -0.007091
O	      6.19397      1.38200      1.23546         0.003893     -0.009329     -0.001819
O	      3.12196      1.43851      1.23739         0.003076     -0.005768     -0.002788
