# total energy = -232.34095763 eV
 
CRYSTAL
PRIMVEC
6.118968 -0.091617 0.124001 
1.285059 7.610380 -0.129507 
1.793472 2.198963 7.344649 
PRIMCOORD
36 1
Li	      3.16623      1.46443      4.88988         0.003148      0.007699      0.003157
Li	      1.55908      0.89210      2.37265        -0.013079      0.001046     -0.003398
Li	      2.98500      4.87787     -0.03806        -0.001271     -0.001500      0.000900
Li	      3.25970      6.44557      5.00621        -0.002922      0.000075      0.005009
Li	      4.38058      2.60238     -0.05738         0.001175     -0.012145     -0.004840
Li	      1.46214      2.61135     -0.07889        -0.005448     -0.008697     -0.012686
Li	      4.75497      3.92309      4.97990         0.003862     -0.002798     -0.003174
Li	      2.98203      3.21276      2.39358        -0.005929      0.004853      0.003996
Li	      6.02920      3.24900      2.44473        -0.004549      0.013649      0.007155
Sc	      6.40733      1.42197      4.94469         0.020285      0.018441      0.003636
Sc	      4.61807      0.80636      2.54363         0.008253      0.012084     -0.012594
Ti	      4.66975      2.21644      7.36162         0.012661      0.003530     -0.012043
V	      1.49984      5.73935      2.30243        -0.006948     -0.001806     -0.021425
Cr	      6.06874      6.43542      4.94318         0.024610      0.006049      0.013766
Fe	      4.47585      5.65494      2.45439        -0.001281     -0.003992     -0.017402
Co	      6.08219     -0.05145      0.11758        -0.001815     -0.016283     -0.005170
Cu	      1.71225      4.06692      4.81597        -0.004312      0.004802      0.011298
Ni	      5.94453      4.92116     -0.01754        -0.008548     -0.007847      0.011033
O	      6.21080      8.10584      6.18768        -0.001873     -0.002349      0.000741
O	      3.00262      8.32101      6.10195         0.003168     -0.002593     -0.002958
O	      7.46111      7.31665      3.56086         0.004650      0.010492      0.007655
O	      4.64847      7.25947      3.68252        -0.006798     -0.001750      0.010596
O	      3.02299      6.63159      1.23651         0.011760      0.008503      0.008563
O	      6.06839      6.60627      1.23217         0.003236     -0.002612     -0.005027
O	      7.61283      5.58284      5.97235        -0.009044      0.008252      0.002355
O	      4.71223      5.58439      6.03826        -0.014862     -0.002742     -0.005348
O	      2.86446      5.00638      3.44091         0.003686     -0.001454      0.015172
O	      6.09192      4.98132      3.54467        -0.013830     -0.007033     -0.010431
O	      4.54248      4.14924      1.28059         0.000239     -0.003423      0.002942
O	      1.38625      4.34074      1.18539         0.004954     -0.003475     -0.005390
O	      3.32235      2.92795      6.35916         0.002241     -0.002077      0.001419
O	      6.21077      2.91751      6.38165        -0.002231     -0.007293     -0.015475
O	      4.84346      2.27405      3.84641         0.016787     -0.013003     -0.008765
O	      1.73435      2.42470      3.77121        -0.015237     -0.015875      0.011218
O	      6.16148      1.39910      1.26284         0.005479      0.013339      0.019005
O	      3.09895      1.41708      1.27807        -0.010215      0.007935      0.006509
