# total energy = -232.21743421 eV
 
CRYSTAL
PRIMVEC
6.058089 0.000117 0.017901 
1.387688 7.719466 -0.038435 
1.682130 2.362932 7.268419 
PRIMCOORD
36 1
Li	      3.09452      1.50656      4.72106        -0.003362     -0.002428     -0.004117
Li	      1.51865      0.96193      2.31796         0.000714      0.002668     -0.002366
Li	      4.62723      7.49655      7.15930        -0.006642      0.005857     -0.002806
Li	      3.16550      6.74882      4.99836        -0.000210      0.003727     -0.002847
Li	      4.41243      2.73717      0.05521        -0.003020     -0.000495      0.000863
Li	      1.63604      2.83769     -0.06845         0.002367      0.006791     -0.002561
Li	      4.64241      4.26920      4.90402         0.000868     -0.002533      0.008679
Li	      3.16965      3.19361      2.43418         0.000978      0.001929      0.000374
Li	      5.95907      3.22028      2.32081         0.002265      0.003176      0.009147
Sc	      1.64608      4.14599      4.85020        -0.004419      0.000591     -0.000082
Sc	      6.21110      1.47506      4.75431         0.002666      0.001115      0.002785
Ti	      4.50244      2.55958      7.17655         0.001312      0.001682     -0.006482
V	      1.59269      5.89163      2.37575         0.002890     -0.015631      0.007179
Cr	      6.06664      6.70013      4.92982         0.002609     -0.009102     -0.001242
Fe	      4.52374      5.82290      2.42207        -0.000702      0.007269      0.003744
Co	      6.00944      0.03406      0.02251        -0.001545     -0.001114     -0.001577
Cu	      4.56219      0.77717      2.44084        -0.004345      0.000810      0.004782
Ni	      5.95420      5.10885     -0.01666         0.003332      0.004054     -0.002589
O	      6.12782      8.42759      6.09982        -0.001370     -0.003550      0.003288
O	      2.97498      8.48338      6.07922        -0.005732      0.001054     -0.005646
O	      7.63421      7.36978      3.67772         0.000929     -0.002147     -0.001582
O	      4.75913      7.52608      3.60077         0.000519      0.000230     -0.003457
O	      3.03734      6.83983      1.23962        -0.007149      0.000287      0.002641
O	      5.98977      6.84131      1.35870         0.002830      0.005579     -0.001090
O	      7.56099      5.82289      6.04599         0.007102      0.001769      0.003111
O	      4.65990      5.90807      5.97337         0.004610     -0.000780      0.005594
O	      3.00539      5.06438      3.51583         0.002256      0.000061     -0.007404
O	      6.17944      5.12035      3.64893         0.004117     -0.002492      0.000203
O	      4.58010      4.32361      1.28490        -0.002727     -0.000266      0.001230
O	      1.43236      4.50441      1.26285         0.007972     -0.005737      0.002211
O	      3.18683      3.23913      6.05065        -0.000072     -0.004875      0.000172
O	      6.05323      3.16603      6.07672        -0.004070     -0.003440      0.003258
O	      4.62571      2.26736      3.56804        -0.008469     -0.000445     -0.000726
O	      1.56446      2.47020      3.68634         0.006668      0.002552     -0.001930
O	      5.88819      1.49394      1.31221        -0.004640      0.006467     -0.007286
O	      2.87418      1.60836      1.02034         0.001468     -0.002632     -0.003474
