# total energy = -222.09894395 eV
 
CRYSTAL
PRIMVEC
6.055843 -0.053726 0.049171 
1.318268 7.603441 -0.141792 
1.698883 2.210437 7.269774 
PRIMCOORD
36 1
Li	      3.08897      1.47554      4.76936         0.007955     -0.002070     -0.010396
Li	      1.60689      0.84642      2.42273        -0.003368      0.004968     -0.012753
Li	      4.68869      7.12118      7.18829        -0.002202      0.001834      0.002477
Li	      3.17642      6.49279      4.89546        -0.016379     -0.002058      0.012649
Li	      4.36501      2.60829     -0.05921        -0.007507     -0.003721     -0.000031
Li	      1.44813      2.73605     -0.22667        -0.009103     -0.009628      0.010159
Li	      4.61895      4.00114      4.86239         0.009419     -0.004707      0.008350
Li	      3.13597      3.08073      2.48146         0.007047     -0.003937      0.001945
Li	      5.95236      3.18299      2.34381        -0.003293      0.015067     -0.007452
Sc	      6.22738      1.48559      4.79275         0.004633      0.000194     -0.000703
Ti	      4.55964      2.28239      7.27601         0.014593     -0.005529     -0.006230
V	      1.49820      5.70104      2.25559        -0.000523     -0.000377     -0.019842
Cr	      5.99307      6.47557      4.83225        -0.004330     -0.002160      0.013988
Fe	      4.45025      5.68099      2.35860         0.003581      0.007092     -0.009985
Co	      6.00529     -0.00980      0.07751         0.004810      0.005671     -0.001977
Cu	      1.65841      4.06143      4.75990        -0.007303      0.006004      0.006128
Cu	      4.58402      0.73743      2.49237         0.006827      0.005616     -0.005621
Ni	      7.60032      7.17603      7.16617        -0.002767     -0.018179     -0.004745
O	      6.10043      8.15863      6.05365        -0.000746      0.007860     -0.004605
O	      2.93368      8.35479      6.03436        -0.012671      0.008372     -0.009736
O	      7.39230      7.33533      3.47094        -0.000297     -0.015274     -0.006736
O	      4.59492      7.31024      3.58368         0.008069     -0.003541     -0.002000
O	      2.98668      6.64371      1.18425         0.005764     -0.006691      0.017786
O	      6.01547      6.66381      1.17571        -0.005723     -0.002384      0.008165
O	      7.54011      5.61339      5.85601        -0.010719      0.003542      0.005784
O	      4.62370      5.63768      5.91820        -0.011380     -0.003389      0.001118
O	      2.87401      5.00587      3.39888         0.004941      0.011183      0.006291
O	      6.03775      4.99661      3.45781         0.007539     -0.001664     -0.008885
O	      4.51931      4.17969      1.18903        -0.003563      0.012641      0.015022
O	      1.37063      4.33621      1.12854         0.007056      0.009013      0.004413
O	      3.19601      3.01566      6.30273        -0.008387      0.005305     -0.000423
O	      6.04734      2.98251      6.23359        -0.002920     -0.004460      0.000478
O	      4.66114      2.29220      3.68077         0.015005      0.000322     -0.007193
O	      1.62979      2.43684      3.70742        -0.010553     -0.007321      0.005435
O	      6.03079      1.38265      1.23333         0.009510      0.000231     -0.002150
O	      3.11911      1.41767      1.29187         0.006989     -0.007825      0.001276
