# total energy = -221.70221940 eV
 
CRYSTAL
PRIMVEC
6.031939 -0.040620 0.071956 
1.329048 7.620690 -0.045492 
1.724077 2.306982 7.266576 
PRIMCOORD
36 1
Li	      3.01721      1.50898      4.78970        -0.004636     -0.001925      0.001575
Li	      1.55045      0.87839      2.44848        -0.000916      0.011036     -0.009173
Li	      3.03378      4.89089      0.04086         0.004292     -0.007314      0.010270
Li	      3.16315      6.57112      4.95635         0.003465     -0.001795      0.006438
Li	      6.09020      4.97007      7.24695         0.006304     -0.009925      0.000100
Li	      3.19865      4.96632      7.24028        -0.001125      0.003599     -0.011007
Li	      4.58568      4.10911      4.84390         0.009587     -0.004792      0.001826
Li	      2.97411      3.25458      2.48643         0.014605      0.000819     -0.011866
Li	      6.09879      3.26229      2.52420         0.004081      0.001577     -0.000317
Sc	      4.58740      0.87497      2.48092        -0.008315      0.007947      0.007508
Ti	      4.48558      2.38620      7.14478        -0.015987      0.001929     -0.004870
V	      1.58687      5.75798      2.36751         0.007814      0.011141     -0.016928
Cr	      6.01562      6.60225      4.93806        -0.015255      0.000954      0.003826
Fe	      4.50743      5.70801      2.47308        -0.012500      0.009094      0.006166
Co	      7.68294      2.28802      7.31443         0.000591     -0.005333     -0.008273
Cu	      7.68742      7.23533      7.26546        -0.007692     -0.001232      0.002582
Cu	      6.15967      1.53182      4.84900         0.006367      0.003614      0.001406
Ni	      7.62239      4.03901      4.91614         0.002978     -0.010873      0.002021
O	      5.96193      8.37008      6.01113         0.010035      0.003040      0.000710
O	      2.83548      8.41010      6.05684         0.000547     -0.003723     -0.009617
O	      7.42678      7.41314      3.57640         0.003064      0.004720      0.004501
O	      4.60739      7.34174      3.61896         0.004858     -0.001642      0.010451
O	      3.04081      6.66019      1.22340         0.001158     -0.002512      0.004302
O	      6.08417      6.62664      1.26427        -0.003542     -0.011670      0.003870
O	      7.50900      5.76802      5.99519         0.005218      0.012227      0.003509
O	      4.64842      5.75576      6.02628         0.005237      0.000058      0.005857
O	      2.97800      5.02528      3.54401        -0.015058      0.000059      0.007882
O	      6.14401      5.04025      3.64318         0.000031     -0.000474      0.003125
O	      4.63236      4.23596      1.26490         0.004681     -0.009278     -0.006908
O	      1.56817      4.30436      1.35964        -0.009183      0.007340     -0.001099
O	      3.10500      3.13514      6.15806         0.004071     -0.010647      0.016200
O	      6.07375      3.05748      6.15561        -0.004498     -0.013885      0.000940
O	      4.67166      2.41673      3.70711         0.000802      0.006974     -0.004873
O	      1.54748      2.41877      3.71928         0.002899      0.005214     -0.008051
O	      6.06887      1.44601      1.16646         0.001176      0.002043     -0.004488
O	      3.05747      1.43749      1.16307        -0.005154      0.003636     -0.007593
