# total energy = -221.77050043 eV
 
CRYSTAL
PRIMVEC
5.972710 0.006665 -0.004210 
1.376542 7.670636 -0.000906 
1.634757 2.389607 7.239141 
PRIMCOORD
36 1
Li	      3.05151      1.56761      4.62614         0.005857     -0.006452      0.001053
Li	      1.52923      0.91853      2.45188         0.002273     -0.000906      0.002712
Li	      4.57890      7.42088      7.19742         0.006755     -0.003266      0.008436
Li	      3.10767      6.71536      4.97025         0.004049      0.008670     -0.008995
Li	      4.36803      2.70874      0.01343        -0.006253     -0.003940      0.001102
Li	      1.54641      2.76615     -0.04296        -0.012095      0.010568     -0.015881
Li	      4.55555      4.18265      4.80261        -0.008414     -0.006283     -0.003559
Li	      3.12063      3.17747      2.47382        -0.007481     -0.003765     -0.005097
Li	      5.92330      3.23027      2.39693        -0.000763     -0.015356     -0.001877
Sc	      1.56359      4.08069      4.82931        -0.004319      0.016419      0.004257
Ti	      4.48385      2.53106      7.15044         0.010688      0.010022      0.017889
V	      1.54369      5.87459      2.36910         0.005228     -0.000275      0.010306
Cr	      5.94705      6.71807      4.90322         0.027657      0.005037     -0.000401
Fe	      4.45875      5.83379      2.42715         0.023645      0.003854     -0.009574
Co	      5.91859      0.01640      0.02440        -0.010722      0.001757      0.004394
Cu	      7.51920      7.45117      7.21298         0.007887     -0.003241     -0.020250
Cu	      4.50753      0.87369      2.43139         0.002051     -0.010935     -0.001693
Ni	      6.05254      1.58911      4.74000        -0.008637      0.003485      0.000868
O	      6.04293      8.41473      6.10529        -0.006060      0.010893      0.012114
O	      2.89718      8.53368      6.18356        -0.004361     -0.006981      0.007052
O	      7.36440      7.47709      3.52310        -0.010688     -0.000743      0.002477
O	      4.56369      7.48464      3.62207         0.015770     -0.000104     -0.001374
O	      2.97907      6.77096      1.24271         0.016073      0.009322      0.000786
O	      5.91725      6.81814      1.25717        -0.015405      0.008810      0.012766
O	      7.46683      5.84335      5.93904         0.000144     -0.008715     -0.001237
O	      4.57837      5.87338      5.97742        -0.017200      0.003405      0.005040
O	      2.92706      5.08383      3.50433         0.011577      0.006319     -0.013650
O	      6.05759      5.13424      3.61233        -0.009538     -0.001188      0.006581
O	      4.53145      4.31601      1.24922         0.002955     -0.013505     -0.011137
O	      1.39713      4.46058      1.26414        -0.000772     -0.017545     -0.011987
O	      3.08594      3.22415      6.12677        -0.008064      0.010966     -0.007171
O	      5.97984      3.20445      6.08985        -0.005660     -0.007404      0.000194
O	      4.57084      2.43336      3.63107         0.002416     -0.000140      0.009383
O	      1.54413      2.48425      3.64213         0.000524      0.014155      0.003377
O	      5.91267      1.46594      1.13258        -0.015883      0.004533      0.010229
O	      3.00375      1.51009      1.13694         0.006767     -0.017468     -0.007132
