# total energy = -222.02371663 eV
 
CRYSTAL
PRIMVEC
6.059756 -0.127952 0.145798 
1.224097 7.617625 -0.076702 
1.788148 2.240271 7.277569 
PRIMCOORD
36 1
Li	      3.05498      1.54447      4.77881        -0.001343     -0.005764     -0.002664
Li	      1.55788      0.89489      2.42415         0.000683      0.004799      0.001497
Li	      2.90689      4.86861      0.01000        -0.004593     -0.003657     -0.001980
Li	      3.17461      6.50815      4.99875         0.004483      0.003675     -0.002894
Li	      4.30399      2.59544     -0.00698        -0.003176     -0.001822     -0.002611
Li	      1.40130      2.60905     -0.06583         0.000325     -0.005402      0.002694
Li	      4.68188      3.91847      4.95200         0.004334      0.005293     -0.004439
Li	      3.04410      3.14991      2.51615         0.006420     -0.004207      0.014654
Li	      6.07935      3.20588      2.58131        -0.002274      0.004688      0.008629
Sc	      4.64864      0.81022      2.57426         0.002728      0.003896      0.005572
Ti	      4.72259      2.26687      7.30053         0.001374     -0.007897     -0.004771
V	      1.46107      5.77939      2.32765        -0.007577     -0.006295     -0.010661
Cr	      5.98276      6.45481      4.94803        -0.001005      0.004460     -0.006414
Fe	      4.40637      5.66979      2.47790        -0.000374      0.010329      0.004109
Co	      6.03312     -0.09429      0.09935         0.005880     -0.005151     -0.012735
Cu	      7.63253      7.14475      7.29505        -0.005433     -0.006398      0.002287
Cu	      1.57478      4.05707      4.80093        -0.004108     -0.001045     -0.004847
Ni	      6.27633      1.40041      4.92176        -0.003228      0.004063     -0.004150
O	      6.18784      8.08997      6.19633        -0.002168     -0.007868      0.008552
O	      2.91897      8.33684      6.10590         0.003887     -0.006303      0.004296
O	      7.37594      7.27581      3.57346        -0.005991      0.002721     -0.001156
O	      4.55536      7.27253      3.70856         0.002187     -0.011065      0.000498
O	      2.99269      6.62364      1.26868         0.007594      0.002632     -0.004465
O	      5.93567      6.61981      1.25964        -0.002632     -0.006049      0.007325
O	      7.52764      5.56522      5.98002        -0.000406      0.011094      0.005199
O	      4.63076      5.60853      6.03888        -0.002502     -0.007420     -0.012712
O	      2.78044      4.96762      3.47105         0.003982      0.005525     -0.004181
O	      5.98293      4.98249      3.57485        -0.009082      0.006583     -0.008661
O	      4.48401      4.15220      1.27808         0.000810      0.006203      0.004850
O	      1.29126      4.39519      1.16741        -0.003016      0.016476      0.004638
O	      3.34843      2.90872      6.28732         0.002072     -0.007402      0.005962
O	      6.25041      2.97853      6.25929         0.002513      0.001357      0.004773
O	      4.70753      2.31721      3.79310         0.001645     -0.001908     -0.005012
O	      1.61987      2.47399      3.71096        -0.000131     -0.003236      0.006590
O	      6.15448      1.35189      1.24233         0.007352     -0.000745     -0.000611
O	      3.11832      1.40571      1.26993         0.000771      0.005841      0.002839
