# total energy = -232.11232554 eV
 
CRYSTAL
PRIMVEC
5.971050 0.008197 -0.014801 
1.378174 7.797592 0.151791 
1.622690 2.576395 7.343066 
PRIMCOORD
36 1
Li	      3.05004      1.61857      4.77967         0.000322      0.006501      0.007829
Li	      1.43771      1.03187      2.48652        -0.006600      0.002034     -0.001625
Li	      2.96726      5.03604      0.12696        -0.000498     -0.005633     -0.000676
Li	      3.14824      6.95949      5.05177         0.000273      0.003501      0.003587
Li	      4.40455      2.67448      0.12202        -0.002130     -0.003589      0.003615
Li	      1.52108      2.67230      0.10898        -0.007396     -0.000972      0.005275
Li	      4.54197      4.34053      4.98709         0.001863      0.019794      0.014649
Li	      3.09774      3.39813      2.44979         0.002278     -0.002617      0.000742
Li	      5.92928      3.23858      2.43871        -0.006108      0.013707      0.003133
Sc	      7.51523      7.68684      7.35842        -0.001273      0.000087     -0.003364
Sc	      1.54881      4.26072      5.02188        -0.002436     -0.010056     -0.004183
Ti	      2.90379      0.26857      0.01313        -0.003689     -0.001738     -0.013630
V	      1.54391      6.01435      2.51829         0.008574     -0.001578      0.000549
Cr	      5.91528      6.91248      4.99131        -0.004856     -0.002622      0.000329
Fe	      4.43898      5.97888      2.56992        -0.003523     -0.008381     -0.000673
Co	      5.97454      0.10582      0.04842         0.006895      0.001957      0.000270
Cu	      6.04107      1.74065      4.84392        -0.000089      0.004049     -0.012579
Ni	      4.53159      0.92290      2.43591         0.003570      0.007554      0.010697
O	      6.08612      8.67083      6.10813        -0.003334      0.000305     -0.005050
O	      2.83307      8.85208      6.17686        -0.002185      0.006480     -0.002228
O	      7.36151      7.52677      3.56152         0.000652     -0.000646     -0.008409
O	      4.53091      7.62378      3.73623        -0.002807     -0.005184     -0.001103
O	      2.99393      6.86719      1.32689         0.001459      0.000804      0.001359
O	      5.82539      6.89284      1.31136        -0.006427      0.006073     -0.002033
O	      7.46284      6.09793      6.08827         0.007374     -0.000612      0.008215
O	      4.57337      6.17065      6.16029         0.007115     -0.004935     -0.004565
O	      2.90652      5.16336      3.64004         0.003171     -0.003653     -0.003974
O	      6.03435      5.27177      3.75614         0.002114     -0.002622     -0.006394
O	      4.48254      4.42630      1.36598         0.006112      0.001518     -0.007555
O	      1.42675      4.55406      1.36640        -0.002708     -0.001502     -0.005695
O	      3.16275      3.47796      6.22077         0.002393     -0.008732      0.011217
O	      5.94600      3.54072      6.30304        -0.001085     -0.000689      0.009406
O	      4.65334      2.44958      3.76512         0.000492     -0.003685      0.003649
O	      1.42660      2.58370      3.83390        -0.001690      0.002942      0.005556
O	      5.96647      1.68060      1.21403        -0.001449     -0.003795     -0.003984
O	      2.94548      1.61829      1.21922         0.005628     -0.004065     -0.002356
