# total energy = -231.88831252 eV
 
CRYSTAL
PRIMVEC
6.047370 -0.025178 0.052674 
1.352906 7.667311 -0.043536 
1.711865 2.329690 7.285227 
PRIMCOORD
36 1
Li	      3.13598      1.50719      4.70607        -0.000533     -0.001060      0.004877
Li	      1.58183      0.88734      2.37896        -0.004219     -0.004575      0.000192
Li	      4.67870      7.34449      7.24932         0.015316     -0.007028      0.007396
Li	      3.21232      6.66280      4.98496        -0.005183     -0.001748      0.003948
Li	      4.36229      2.67346      0.04307         0.002891      0.001908     -0.007696
Li	      1.57591      2.71442      0.05592        -0.005735      0.001131      0.000065
Li	      4.64022      4.15235      4.82956        -0.009103      0.008060     -0.004260
Li	      3.16727      3.18060      2.50039        -0.002973     -0.002222      0.000842
Li	      5.96766      3.21782      2.36905         0.002944      0.002195     -0.008746
Sc	      1.65164      4.14191      4.87536         0.001185      0.018888      0.005860
Sc	      6.12520      1.51140      4.74377        -0.011846     -0.011976     -0.001545
Ti	      4.49787      2.45696      7.18830         0.007888     -0.009704      0.006809
V	      1.57720      5.80287      2.34728         0.002430     -0.016974     -0.002998
Cr	      5.98880      6.65924      4.94078        -0.002651      0.005031      0.010140
Fe	      4.52406      5.80985      2.44787         0.001429     -0.006464      0.001117
Co	      5.96871     -0.00911      0.06217        -0.006534     -0.005780     -0.001141
Cu	      7.65261      7.33637      7.28863         0.003561     -0.002712      0.004693
Ni	      4.56636      0.80467      2.43678        -0.008389      0.001474     -0.008907
O	      5.95486      8.44512      6.04045        -0.007732      0.007417      0.001639
O	      2.90390      8.45999      6.17546        -0.005661     -0.003832      0.002486
O	      7.44854      7.41966      3.58419        -0.001898     -0.004359     -0.005312
O	      4.61916      7.40116      3.64365         0.001368      0.008701     -0.003705
O	      3.02793      6.73473      1.23793         0.002678      0.003993      0.003091
O	      6.06571      6.66959      1.27218         0.016527      0.000677      0.006170
O	      7.53028      5.83779      6.03045         0.002313     -0.004747     -0.004554
O	      4.64794      5.80287      6.03658        -0.003176      0.001695      0.012796
O	      2.99560      5.07376      3.56431         0.008025      0.004936     -0.003852
O	      6.16862      5.07131      3.67640         0.003442     -0.003643     -0.000458
O	      4.61209      4.28197      1.27744         0.006145     -0.004261     -0.017417
O	      1.55850      4.34180      1.37479        -0.000717      0.005365     -0.000632
O	      3.12294      3.21349      6.17958        -0.012694      0.000587     -0.005828
O	      6.08355      3.12129      6.15658        -0.003236      0.004621     -0.009652
O	      4.66102      2.41410      3.66757         0.002147      0.008446      0.001318
O	      1.59866      2.45845      3.72508        -0.003330     -0.002999      0.002276
O	      6.02444      1.43923      1.15998         0.010702      0.005309      0.011411
O	      3.03778      1.46250      1.15196         0.004619      0.003650     -0.000423
