# total energy = -221.46752116 eV
 
CRYSTAL
PRIMVEC
5.996982 -0.001876 0.004801 
1.371093 7.615617 -0.075600 
1.648967 2.297232 7.261465 
PRIMCOORD
36 1
Li	      2.99082      1.55151      4.72331        -0.008256     -0.000700     -0.002522
Li	      1.52397      0.94158      2.45581        -0.001828     -0.001600     -0.004908
Li	      4.58181      7.27428      7.14335         0.000278      0.013194      0.005066
Li	      3.16736      6.58471      4.85831        -0.008575     -0.006218      0.003686
Li	      4.39461      2.56313      0.00040         0.001190     -0.003253     -0.002108
Li	      1.63503      2.61890     -0.07489         0.005861      0.001947      0.010987
Li	      4.53429      4.10806      4.76140        -0.013684      0.003556      0.007606
Li	      3.07758      3.17477      2.49872        -0.004345     -0.006987     -0.001941
Li	      5.99812      3.19092      2.48811         0.005998     -0.007824     -0.006954
Sc	      7.56954      7.24810      7.12694         0.001110      0.022902     -0.014748
Ti	      4.52541      2.41214      7.19967         0.019753     -0.010960      0.007227
V	      1.51933      5.79208      2.35146        -0.004181      0.006466     -0.004382
Cr	      5.92496      6.59950      4.80990        -0.010161      0.006854      0.006291
Fe	      4.42383      5.77188      2.37861        -0.012105      0.003266      0.002567
Co	      5.98289      0.01242      0.05478        -0.002888     -0.006574     -0.002059
Cu	      1.58496      4.04966      4.81054        -0.002467      0.004190      0.005386
Cu	      4.53246      0.84913      2.44643         0.019400     -0.001677      0.002919
Ni	      6.12943      1.56479      4.78093         0.017117     -0.018654      0.005897
O	      6.06215      8.26855      6.05028        -0.004887      0.008478      0.008889
O	      2.97349      8.39166      6.06440         0.007227     -0.007089     -0.007206
O	      7.33804      7.42476      3.45742        -0.008044     -0.001303     -0.011477
O	      4.55657      7.41540      3.55376        -0.002631      0.004653      0.002757
O	      2.91918      6.73432      1.14927        -0.004149     -0.004564      0.007101
O	      5.97098      6.73864      1.14636         0.005963     -0.009032     -0.001507
O	      7.47905      5.70452      5.86237        -0.001924      0.002571      0.007445
O	      4.59858      5.72619      5.92417        -0.013908      0.007451     -0.008015
O	      2.91181      5.08280      3.45893         0.012157     -0.009115      0.009853
O	      5.99505      5.09294      3.48535        -0.009052     -0.009475     -0.007320
O	      4.49403      4.27839      1.19202        -0.002424     -0.004650      0.008012
O	      1.42818      4.37383      1.22161        -0.000985      0.011229     -0.001255
O	      3.12275      3.11372      6.25522         0.008863      0.003465     -0.006034
O	      6.11232      3.03988      6.25376        -0.001819      0.003342     -0.000982
O	      4.59393      2.36274      3.66128        -0.006928      0.005596     -0.014438
O	      1.54727      2.51140      3.70487         0.010574     -0.002266     -0.005491
O	      5.95406      1.48889      1.19499        -0.002214      0.007767     -0.005753
O	      3.04115      1.49540      1.20657         0.011962     -0.004988      0.007412
