# total energy = -233.77495446 eV
 
CRYSTAL
PRIMVEC
5.896849 -0.016979 -0.013060 
1.493416 7.846958 0.079739 
1.466672 2.880086 7.352038 
PRIMCOORD
36 1
Li	      1.43270      2.86019      7.29458         0.004940     -0.000287      0.005929
Li	      4.48294      7.83178      0.21299        -0.004002      0.008723      0.000556
Li	      5.82724      1.95654      5.12083         0.013556      0.022952      0.000126
Li	      5.87874      8.74474      2.53626         0.004257     -0.010738      0.012933
Li	      1.51529      0.96330      2.31199         0.002855      0.008896      0.004289
Li	      5.84554      5.27342      0.09013         0.002165     -0.005290     -0.003573
Li	      4.42336      6.08570      2.36943        -0.004283      0.008430     -0.007396
Li	      1.47160      4.55169      4.93766         0.001382     -0.003185      0.002971
Li	      2.95029      3.49102      2.34081        -0.011171     -0.007195      0.009616
Sc	      4.47945      2.52937      0.10968        -0.005698     -0.007290     -0.010654
Sc	      4.46476      4.50129      4.86634         0.007858      0.010835      0.010503
Ti	      7.31938      6.27746      2.35883        -0.002403      0.005565      0.017039
V	      2.83824      2.00639      4.77930        -0.006396     -0.013802      0.007021
Cr	      2.97644      5.25364      0.08656         0.013270     -0.009610     -0.021962
Fe	      2.89740      7.16395      4.89689        -0.006718      0.009606     -0.002900
Co	      5.94405      7.20214      4.94072         0.001299      0.018149     -0.005668
Cu	      1.48157      2.57848      0.08661        -0.006984      0.002404     -0.009361
Ni	      5.93738      3.56267      2.45652         0.003788     -0.010078     -0.009725
O	      5.77835      8.86888      6.13912        -0.010834      0.006440      0.002293
O	      3.08542      8.90491      6.08874        -0.002458     -0.004657      0.004899
O	      7.41908      7.81158      3.65032         0.000912     -0.011088     -0.006146
O	      4.42550      8.14017      3.91729        -0.005773     -0.015605      0.003237
O	      2.88850      6.86964      1.25826         0.005453      0.000272     -0.012048
O	      5.98697      6.99619      1.36892        -0.001579     -0.006769     -0.006758
O	      7.46254      6.34863      6.17247         0.002916     -0.007861      0.005349
O	      4.37857      6.36061      6.20209        -0.007764     -0.012208      0.008341
O	      2.98038      5.51703      3.80336        -0.002884      0.004117     -0.002103
O	      5.95277      5.32383      3.65134        -0.002645     -0.017582     -0.011774
O	      4.40046      4.36592      1.20428         0.002716     -0.001826      0.009592
O	      1.52820      4.59146      1.40227        -0.000331     -0.006973     -0.001620
O	      2.95725      3.41316      5.93064         0.004541      0.017388      0.013866
O	      5.87831      3.79666      6.14568        -0.004364      0.005120     -0.011606
O	      4.32310      2.70177      3.78486         0.010618      0.018507      0.001560
O	      1.54492      2.66281      3.76805         0.004733      0.005009      0.009361
O	      5.97608      1.88902      1.29963         0.002161      0.003148     -0.000996
O	      2.91687      1.78648      1.17618        -0.003130     -0.003518     -0.005191
