# total energy = -222.37121884 eV
 
CRYSTAL
PRIMVEC
5.963814 -0.017919 0.005651 
1.342982 7.757798 0.099846 
1.634585 2.504289 7.296848 
PRIMCOORD
36 1
Li	      3.04194      1.57540      4.77471        -0.002545     -0.004451     -0.005434
Li	      1.43131      0.95929      2.48991        -0.005422      0.006068     -0.004136
Li	      2.98884      5.04805      0.08829         0.010158     -0.010330      0.002506
Li	      3.05478      6.94369      5.07281         0.000073      0.000840     -0.010349
Li	      4.38973      2.72918      0.09921         0.000026     -0.010882      0.002138
Li	      1.52336      2.88081     -0.02550         0.010992     -0.008422      0.005579
Li	      4.50622      4.45427      5.04305        -0.002132     -0.004354      0.008670
Li	      3.01505      3.32146      2.35043        -0.004084     -0.005034     -0.004960
Li	      5.91674      3.21738      2.38562         0.001311     -0.001545      0.001711
Sc	      1.53600      4.21488      4.96013         0.000689     -0.007529      0.003159
Ti	      4.47073      2.78762      7.30106        -0.013542      0.014855      0.009240
V	      1.56174      5.93303      2.45804        -0.006883      0.003080      0.008423
Cr	      5.98021      6.83060      4.97751        -0.000005      0.001559     -0.012823
Fe	      4.44975      5.83860      2.50922        -0.002369     -0.012361     -0.003382
Co	      5.92249      0.03055      0.01163        -0.008464     -0.003184      0.008887
Cu	      6.05883      1.62222      4.82314         0.003683      0.001259      0.000950
Cu	      4.51928      0.79489      2.45069         0.009276      0.008520     -0.016541
Ni	      7.49281      7.61373      7.32080         0.005149      0.007585      0.006179
O	      6.10033      8.57089      6.06757        -0.009260     -0.016842      0.013662
O	      2.79067      8.74288      6.09906         0.004641     -0.004059     -0.003780
O	      7.51989      7.32088      3.64395         0.000389      0.001048     -0.002071
O	      4.62926      7.60268      3.67436        -0.001371      0.003653      0.002171
O	      2.98618      6.81495      1.27260         0.004532     -0.010230     -0.003790
O	      5.82250      6.91435      1.39262         0.006203     -0.000910     -0.008444
O	      7.45870      5.95612      6.09167        -0.004947      0.012620     -0.004015
O	      4.55320      6.12432      6.06946         0.003654      0.005249      0.002314
O	      2.94435      5.02398      3.56855         0.005908     -0.001635      0.003114
O	      6.01566      5.17597      3.72866         0.001814     -0.004716      0.011963
O	      4.48105      4.34016      1.32898        -0.000909      0.024863      0.003525
O	      1.38293      4.50743      1.31193        -0.000154      0.000245     -0.001366
O	      3.12080      3.37525      6.12574         0.002019      0.010025     -0.026042
O	      5.92441      3.45852      6.26429         0.010868      0.006400     -0.020048
O	      4.67165      2.21490      3.65255        -0.009411      0.005900      0.001536
O	      1.42985      2.50178      3.79245         0.005931      0.009401      0.011810
O	      5.83363      1.51895      1.33962        -0.019500     -0.009076      0.013180
O	      2.77453      1.66663      1.12818         0.003683     -0.007610      0.006467
