# total energy = -102.62356551 eV
 
CRYSTAL
PRIMVEC
-0.000323 2.100397 2.100382 
4.005624 0.001394 -0.001501 
0.007535 8.739632 -8.737088 
PRIMCOORD
16 1
Li	      0.01715      2.27095      1.92518         0.013516      0.002773     -0.000173
Li	      1.98453      2.19259     -0.11171         0.002717     -0.012905      0.002455
Li	      1.98743      4.47653     -2.37407         0.005679     -0.007595      0.017609
Li	      2.01136      6.23762     -4.12227        -0.006408      0.033341     -0.039261
Ti	      3.88194      4.27122     -0.09971        -0.215885      0.007236     -0.013525
Ti	      2.10121      8.76258     -6.64804         0.087095      0.035491     -0.032192
Ni	      0.00734      4.44372     -4.41693        -0.008530     -0.171737      0.130185
Ni	      0.01006      6.42889     -6.41449        -0.003468      0.052849     -0.049647
O	      0.00651      6.53147     -4.41543        -0.008724      0.008066      0.003038
O	      1.99600      6.76047     -6.75446         0.029936      0.137397     -0.129794
O	      0.00756      4.14798     -2.06385        -0.014821     -0.116946      0.126433
O	      2.01003      4.31251     -4.30517        -0.008418     -0.007972      0.016077
O	      0.00441      2.24462     -0.15772        -0.004935      0.081148     -0.084440
O	      2.03588      4.20166     -0.02350         0.248202      0.007623      0.006779
O	      3.99727      8.68161     -6.57349        -0.138280      0.045994     -0.043817
O	      2.00664      8.62510     -8.61988         0.022326     -0.094762      0.090272
