# total energy = -222.21978197 eV
 
CRYSTAL
PRIMVEC
6.025882 -0.018413 0.036340 
1.356360 7.639796 -0.055712 
1.687906 2.314665 7.260203 
PRIMCOORD
36 1
Li	      3.09176      1.54276      4.68404        -0.014556      0.008968      0.002572
Li	      1.58171      0.88994      2.38668        -0.004586      0.005399     -0.004983
Li	      4.64712      7.33563      7.18437        -0.010613     -0.006886     -0.002551
Li	      3.08516      6.52981      4.94604         0.008431     -0.001475     -0.003670
Li	      4.35494      2.65875     -0.03300         0.004365      0.005546     -0.001648
Li	      1.53011      2.75474     -0.10900        -0.010219      0.003943     -0.008989
Li	      4.55848      4.17706      4.81758        -0.001636     -0.009535     -0.003047
Li	      3.06549      3.12302      2.48856        -0.006028      0.007898     -0.001462
Li	      6.01208      3.23603      2.37593         0.009237      0.000761     -0.000251
Sc	      6.16563      1.51571      4.74316        -0.011471     -0.003620     -0.008344
Ti	      4.44228      2.50394      7.20124         0.000561     -0.007269     -0.003806
V	      1.60343      5.79814      2.40324        -0.017570     -0.000991      0.000575
Cr	      6.04197      6.58543      4.92237         0.017439      0.005335      0.016340
Fe	      4.51614      5.75457      2.42923         0.003466      0.005689      0.012167
Co	      5.91563      0.02658      0.05835         0.021052      0.007449     -0.013928
Cu	      7.62789      7.33911      7.24323        -0.006111     -0.011539     -0.002246
Cu	      4.56611      0.79820      2.45657         0.001899      0.013581      0.013800
Ni	      1.60919      4.07169      4.82816        -0.006800     -0.017320      0.000845
O	      6.07529      8.29594      6.08174         0.009930      0.005308      0.012342
O	      2.91614      8.43908      6.18925         0.001808     -0.002554     -0.002413
O	      7.61576      7.29696      3.68704         0.005381      0.014053      0.001247
O	      4.73251      7.44286      3.57052        -0.007398     -0.007479      0.002037
O	      3.04549      6.73995      1.25888         0.010135     -0.002559     -0.013143
O	      6.01936      6.82143      1.33987        -0.011046     -0.013966      0.000262
O	      7.50523      5.71253      5.99244         0.003056      0.002449      0.001833
O	      4.60616      5.80207      5.94676         0.010535      0.008789     -0.009834
O	      3.01804      4.98749      3.48398         0.021544      0.004257      0.004464
O	      6.13228      5.04201      3.60853        -0.003102     -0.009112     -0.007501
O	      4.62506      4.30554      1.21524         0.019223     -0.006955     -0.013282
O	      1.44412      4.42995      1.25373        -0.003809      0.006312      0.001286
O	      3.05072      3.12349      6.12856        -0.009133      0.001618      0.004869
O	      6.00505      3.09216      6.14961        -0.004519      0.004433      0.006546
O	      4.62859      2.31830      3.59299         0.001122     -0.003479      0.009791
O	      1.58543      2.41918      3.67019        -0.002244     -0.011217     -0.001095
O	      5.90165      1.42828      1.24232        -0.008055      0.000643      0.013212
O	      2.85860      1.60034      1.04553        -0.010287      0.003527     -0.001995
