# total energy = -222.18852595 eV
 
CRYSTAL
PRIMVEC
5.985096 -0.023421 0.010398 
1.339709 7.746604 0.098970 
1.643335 2.500209 7.311272 
PRIMCOORD
36 1
Li	      3.02028      1.64158      4.79670        -0.004994     -0.002246     -0.011494
Li	      1.44719      0.98670      2.50066        -0.011219     -0.002843     -0.005328
Li	      2.95890      5.04503      0.06924         0.000946     -0.005172      0.002381
Li	      3.08700      6.80909      4.95944         0.013467      0.009575      0.014883
Li	      4.35724      2.64474      0.09235         0.014477      0.001395      0.000889
Li	      1.57326      2.73400     -0.11001        -0.004176      0.002826     -0.003474
Li	      4.54332      4.38383      5.01791        -0.020466     -0.000437     -0.001047
Li	      2.93871      3.36246      2.35268         0.009430     -0.002693     -0.000937
Li	      5.98003      3.21916      2.50154        -0.007021     -0.002847     -0.012080
Sc	      7.54254      7.53975      7.32196         0.000856     -0.002564     -0.003158
Ti	      2.82874      0.29135     -0.00686        -0.000894     -0.014709     -0.003212
V	      1.56584      5.93022      2.52639         0.009001     -0.001730     -0.007963
Cr	      5.97723      6.79379      4.95776        -0.003329     -0.009684      0.005562
Fe	      4.44138      5.85472      2.52896         0.011058     -0.001079      0.020013
Co	      5.93923      0.10200      0.01437         0.011230     -0.004998     -0.003862
Cu	      6.10300      1.64546      4.85124        -0.000641      0.002612     -0.013573
Cu	      4.52700      0.81503      2.46106        -0.001777     -0.001662      0.014209
Ni	      1.53594      4.21401      4.95643         0.003709      0.018033     -0.000101
O	      6.11590      8.53809      6.08528        -0.004131      0.013238      0.012828
O	      2.83459      8.75013      6.12144        -0.004520      0.001177      0.006266
O	      7.53356      7.33544      3.66213         0.000208      0.003428     -0.002983
O	      4.63595      7.59932      3.68045         0.002589     -0.019503      0.004757
O	      2.99629      6.80604      1.29832        -0.007877     -0.002710     -0.001288
O	      5.85301      6.86352      1.39830         0.009060      0.005883      0.000652
O	      7.47720      5.94522      6.10311        -0.005586     -0.008903     -0.009616
O	      4.56584      6.09581      6.06569         0.001167      0.004339      0.010663
O	      2.95543      5.05949      3.58830         0.001846      0.014165      0.000609
O	      6.02856      5.17188      3.71549        -0.010594     -0.000096     -0.007818
O	      4.47476      4.34586      1.31773         0.017898      0.001567      0.003161
O	      1.41490      4.49277      1.31970         0.016097     -0.008616     -0.002593
O	      3.14238      3.39261      6.15741         0.003104     -0.004536      0.019455
O	      5.94369      3.42515      6.30243        -0.010364     -0.008220      0.004934
O	      4.71054      2.21853      3.69005        -0.011942     -0.000244     -0.000741
O	      1.43350      2.53383      3.82700        -0.004130      0.017804     -0.008622
O	      5.84976      1.53595      1.37139        -0.008503      0.005580     -0.009430
O	      2.79549      1.66996      1.15080        -0.003978      0.003869     -0.011942
