# total energy = -232.96290592 eV
 
CRYSTAL
PRIMVEC
5.984807 0.000064 -0.036479 
1.538677 7.732698 -0.047091 
1.468109 2.728977 7.246667 
PRIMCOORD
36 1
Li	      1.36837      2.61706      7.21181         0.001652     -0.002824     -0.002821
Li	      4.62255      7.68850     -0.05388        -0.005795      0.000785     -0.004359
Li	      5.92696      1.93376      4.93177         0.004102      0.003439     -0.000910
Li	      5.95180      8.58246      2.30798        -0.005660     -0.006822      0.003374
Li	      1.56291      0.86666      2.37468        -0.004308     -0.004899     -0.006283
Li	      5.91986      5.20916     -0.05844         0.003461     -0.000425     -0.001073
Li	      4.49053      5.99762      2.31341        -0.004491     -0.001034     -0.003746
Li	      1.47738      4.37647      4.78565         0.001753      0.005906      0.002234
Li	      3.06690      3.54344      2.41721        -0.000893      0.003817      0.006644
Sc	      4.52193      2.51880      0.01124        -0.004018     -0.004550     -0.007739
Sc	      1.51441      2.46455      0.04500        -0.005380      0.012851     -0.010627
Ti	      7.41485      6.13314      2.22309         0.010235      0.009828     -0.000423
V	      2.89429      1.90787      4.74318        -0.000392      0.000276     -0.002985
Cr	      3.03866      5.20346     -0.01325        -0.014106     -0.002636      0.007568
Fe	      2.97176      6.98525      4.72957         0.001075     -0.007152      0.000816
Co	      6.02169      7.00246      4.73932         0.006196     -0.009084      0.007368
Cu	      4.51366      4.37206      4.74883         0.005557      0.006934      0.004941
Ni	      5.97863      3.46905      2.43263         0.007055     -0.006936      0.009451
O	      5.81570      8.73934      5.94303         0.003503      0.001590     -0.005199
O	      3.11791      8.69564      5.93163        -0.001081      0.009069     -0.003264
O	      7.54473      7.63934      3.46957        -0.003379     -0.004123     -0.005965
O	      4.49177      7.90799      3.69263         0.004229      0.005842     -0.004347
O	      2.89259      6.76440      1.18419        -0.007140     -0.001177      0.004332
O	      6.10131      6.83146      1.20583        -0.005666     -0.008639     -0.002266
O	      7.53619      6.19993      5.98405        -0.002591      0.000349     -0.000437
O	      4.45105      6.20471      6.03213         0.002549      0.000197      0.004409
O	      3.04586      5.31824      3.65608         0.006230      0.001699     -0.001387
O	      6.02727      5.21245      3.54342         0.001861     -0.003906     -0.005197
O	      4.47491      4.32311      1.10116         0.003002      0.002830     -0.000017
O	      1.56826      4.37256      1.22859        -0.002980     -0.004060      0.002213
O	      3.04334      3.55611      5.93267         0.002741      0.002301      0.003980
O	      5.93224      3.64077      5.96294        -0.001291      0.003953      0.005579
O	      4.45785      2.70324      3.69766        -0.004322     -0.002902      0.000398
O	      1.59417      2.59676      3.71151        -0.000024      0.004100      0.000199
O	      6.01471      1.80896      1.20429         0.002521     -0.002351      0.004890
O	      3.01437      1.73384      1.13656         0.005795     -0.002244      0.000649
