# total energy = -233.22186332 eV
 
CRYSTAL
PRIMVEC
5.902496 0.017024 -0.087577 
1.540580 7.747064 -0.055978 
1.392737 2.741014 7.263035 
PRIMCOORD
36 1
Li	      1.26029      2.71277      7.25190         0.003435      0.008009      0.000538
Li	      4.62631      7.76467     -0.02863        -0.000024      0.001398      0.004377
Li	      5.84299      1.86071      4.87382         0.001554      0.004925      0.010071
Li	      4.40354      0.97052      2.30078        -0.005839     -0.001241     -0.003484
Li	      1.53000      0.82519      2.37221        -0.003435      0.006400     -0.003317
Li	      5.84324      5.20921     -0.08635         0.006940      0.006057     -0.001557
Li	      4.45609      6.14493      2.30521         0.004397     -0.007668      0.003479
Li	      1.44264      4.42123      4.81949        -0.004527     -0.006413     -0.000804
Li	      3.01550      3.41058      2.30434         0.005177     -0.006672     -0.000133
Sc	      4.50058      4.41829      4.72314         0.007578      0.002853     -0.006574
Sc	      1.42142      2.46310      0.01857         0.001179     -0.004285      0.012831
Ti	      7.31928      6.14387      2.18166        -0.013896     -0.005478     -0.007226
V	      2.83668      1.93191      4.77505        -0.013181     -0.005681      0.006669
Cr	      3.00550      5.17950     -0.02439         0.015589      0.015847      0.001819
Fe	      2.89246      7.03511      4.72391         0.000879      0.016972     -0.001024
Co	      4.41408      2.57896     -0.03962        -0.009496     -0.010177     -0.005033
Cu	      5.95669      7.12792      4.73683        -0.003034      0.001430      0.007414
Ni	      5.88764      3.44936      2.34450         0.005464     -0.000925      0.015144
O	      5.70683      8.80235      5.97013         0.001688      0.004536      0.006772
O	      3.02486      8.69539      5.92388        -0.004266     -0.000723     -0.009287
O	      7.46673      7.72149      3.37434        -0.004586     -0.000707      0.007953
O	      4.46526      7.89618      3.71585        -0.007237      0.000848      0.005684
O	      2.89069      6.75084      1.17413         0.007337     -0.008088     -0.005103
O	      5.99875      6.84201      1.16998        -0.009802     -0.002905     -0.004460
O	      7.28275      6.24783      5.92483         0.003564      0.002407     -0.007291
O	      4.34219      6.17241      6.08797        -0.001544      0.003276     -0.011576
O	      2.95815      5.38777      3.64923        -0.004276      0.019058      0.003369
O	      5.96866      5.18946      3.42266        -0.004606     -0.017146     -0.004823
O	      4.41899      4.19173      1.01474         0.000324     -0.000507      0.003357
O	      1.54213      4.36535      1.19687        -0.000283     -0.003023      0.000470
O	      2.92688      3.57612      5.94282         0.006386     -0.003891     -0.011056
O	      5.86300      3.76461      6.07633        -0.003593     -0.006058     -0.006042
O	      4.37702      2.65584      3.69815         0.008855      0.012950      0.002481
O	      1.53473      2.56654      3.70205         0.005679     -0.006746      0.004423
O	      5.80716      1.85235      1.10570         0.002274     -0.006601     -0.006684
O	      2.99704      1.78108      1.07827         0.005326     -0.002031     -0.001374
