# total energy = -221.73088533 eV
 
CRYSTAL
PRIMVEC
6.085466 -0.099849 0.117322 
1.266526 7.593811 -0.091162 
1.771779 2.231071 7.278588 
PRIMCOORD
36 1
Li	      3.09832      1.47271      4.76026         0.000044     -0.007171      0.004271
Li	      1.52530      0.90640      2.42473         0.003962     -0.000684      0.004582
Li	      2.97576      4.84195      0.03181        -0.013159      0.007511     -0.002490
Li	      3.22017      6.47346      4.88743         0.001563      0.002260     -0.000196
Li	      4.37205      2.53249      0.02876        -0.009770     -0.006987      0.006160
Li	      1.58435      2.52214      0.01824         0.004042     -0.002123      0.000917
Li	      4.67405      3.92179      4.93592         0.004268      0.005211     -0.000835
Li	      3.13463      3.15477      2.44410         0.005370     -0.004221      0.019780
Li	      6.04260      3.11916      2.55327         0.009747      0.011107     -0.004337
Sc	      7.71677      7.08555      7.24648         0.002071      0.022211      0.003044
Ti	      2.88695      0.05162      0.05344         0.014359     -0.022019      0.007772
V	      1.49270      5.79563      2.35973         0.004218     -0.006813     -0.018209
Cr	      5.98613      6.47906      4.89280        -0.001827      0.001620      0.000848
Fe	      4.45258      5.69722      2.48092        -0.013982      0.009792     -0.017728
Co	      6.04477     -0.01044      0.07244         0.000018     -0.020677     -0.006964
Cu	      1.57696      4.03087      4.78914         0.000705     -0.004537      0.000782
Cu	      6.23612      1.44020      4.87587         0.015018     -0.009079     -0.001019
Ni	      4.63603      0.77125      2.51713        -0.003263      0.001377     -0.010299
O	      6.18293      8.11319      6.14247         0.002797      0.003670     -0.000053
O	      2.94891      8.38276      5.99908        -0.000876      0.006189      0.006898
O	      7.43022      7.30475      3.56839         0.000070      0.014000      0.007937
O	      4.59811      7.28710      3.66756        -0.006728      0.005607      0.001473
O	      3.01992      6.62833      1.25229         0.001370     -0.000563     -0.008975
O	      5.99636      6.62887      1.22218         0.000522     -0.021802     -0.005144
O	      7.54986      5.56609      5.95118        -0.006069     -0.002666      0.007261
O	      4.65061      5.62812      6.01361         0.002695     -0.009268     -0.005315
O	      2.84866      4.98030      3.47079         0.025347      0.002750     -0.002094
O	      6.03099      4.99558      3.54382        -0.003725     -0.015057      0.000763
O	      4.51301      4.16489      1.27521        -0.009687     -0.009206      0.011585
O	      1.38299      4.38191      1.19595         0.000389      0.005346      0.009627
O	      3.31739      2.96857      6.30173        -0.015306      0.007827     -0.021750
O	      6.19859      2.94769      6.19853        -0.000816      0.003882      0.001124
O	      4.74667      2.27954      3.80079        -0.008699      0.012780     -0.006909
O	      1.56169      2.44742      3.72158         0.001700     -0.005785      0.004380
O	      6.11098      1.40816      1.21809        -0.003080      0.010124      0.015466
O	      3.09789      1.45782      1.22744        -0.003287      0.015395     -0.002352
