# total energy = -222.06618774 eV
 
CRYSTAL
PRIMVEC
6.060911 -0.101877 0.102287 
1.257570 7.594189 -0.103387 
1.746968 2.222776 7.274121 
PRIMCOORD
36 1
Li	      3.12744      1.49373      4.73886        -0.000507     -0.001957     -0.000102
Li	      1.55298      0.88635      2.35736         0.001149      0.002316     -0.001068
Li	      2.94246      4.86271     -0.02113        -0.000829      0.000917      0.005938
Li	      3.18497      6.48306      4.97127         0.007983      0.004448     -0.009792
Li	      4.34146      2.57058     -0.00939        -0.003569      0.000090      0.003959
Li	      1.42391      2.63024     -0.07197         0.005100     -0.015210      0.007962
Li	      4.62858      3.94477      4.92112        -0.007746     -0.005964     -0.002533
Li	      3.17480      3.04642      2.56874         0.005218      0.002931     -0.004663
Li	      5.93915      3.17144      2.38321        -0.009560     -0.008674      0.004666
Sc	      6.22133      1.45030      4.79404        -0.000671     -0.015700      0.003148
Ti	      2.89830      0.08416      0.06656         0.005049      0.007063      0.012605
V	      1.46608      5.73845      2.30952         0.015823      0.001138      0.000961
Cr	      5.97203      6.43372      4.89468        -0.005362      0.016667     -0.021791
Fe	      4.43265      5.70141      2.43795        -0.019590      0.012858      0.002356
Co	      6.01871     -0.05342      0.09835        -0.011975      0.005131     -0.000997
Cu	      7.60560      7.14671      7.23982         0.001388      0.008244      0.012602
Cu	      1.61181      4.05899      4.79503         0.011070      0.001198     -0.004160
Ni	      4.61013      0.74517      2.50633         0.009762     -0.002842      0.011270
O	      6.15045      8.07884      6.14374        -0.008044     -0.019915      0.001639
O	      2.89710      8.31929      6.08797         0.006309     -0.004951     -0.008310
O	      7.39077      7.26880      3.53112        -0.004915     -0.020315     -0.002106
O	      4.57122      7.26125      3.67585         0.000748     -0.008950      0.003700
O	      2.98950      6.62616      1.24508        -0.005634      0.000291     -0.008524
O	      5.94469      6.62179      1.21816         0.005712     -0.006371     -0.002142
O	      7.53925      5.57097      5.93500        -0.006093      0.007299     -0.001939
O	      4.62498      5.59530      5.99365        -0.006252     -0.000414      0.003127
O	      2.81351      4.95998      3.43690        -0.017085      0.005272     -0.000761
O	      6.01008      4.96256      3.52295        -0.006000      0.008227      0.016943
O	      4.50994      4.16652      1.23565        -0.006671     -0.001763     -0.010385
O	      1.29430      4.38326      1.12762        -0.001931      0.018827      0.011615
O	      3.27506      2.93553      6.29332         0.020844     -0.008108     -0.003440
O	      6.16404      2.97736      6.23626         0.008787      0.013073      0.004236
O	      4.70433      2.31015      3.76103        -0.007859     -0.004076     -0.007882
O	      1.66688      2.43872      3.72021         0.014726      0.011936      0.003937
O	      6.09373      1.37491      1.22047         0.004367     -0.004083     -0.012959
O	      3.08875      1.44819      1.25982         0.006256      0.001367     -0.007109
