# total energy = -222.02483630 eV
 
CRYSTAL
PRIMVEC
6.075864 -0.087583 0.106293 
1.279175 7.606082 -0.123393 
1.761184 2.209737 7.274647 
PRIMCOORD
36 1
Li	      3.04140      1.48012      4.81210         0.000282      0.000196     -0.000959
Li	      1.54455      0.88388      2.44081        -0.007288      0.006277     -0.001492
Li	      3.01261      4.82363      0.00637        -0.006490      0.005081      0.000946
Li	      3.19366      6.49726      4.93111         0.003845      0.001303     -0.006612
Li	      4.38839      2.60941     -0.03903        -0.001842     -0.001218      0.001774
Li	      1.40257      2.63295     -0.13315        -0.002992     -0.006330     -0.012089
Li	      4.72696      3.92721      4.93064         0.003744      0.006522      0.001678
Li	      2.96406      3.23500      2.30446        -0.011736     -0.006835      0.004488
Li	      6.06966      3.22356      2.50775        -0.015944      0.001612      0.000384
Sc	      4.63253      0.81697      2.55029         0.007641      0.002692      0.002493
Ti	      4.61531      2.23496      7.28062         0.014502     -0.000759     -0.008114
V	      1.50124      5.74638      2.28535         0.008500      0.007662     -0.004220
Cr	      6.03605      6.45831      4.89434        -0.009506      0.001462      0.000005
Fe	      4.45661      5.65073      2.43161        -0.014151     -0.001855     -0.005088
Co	      6.03227     -0.04260      0.07784        -0.011001     -0.018762     -0.014787
Cu	      1.65414      4.04868      4.77179         0.001550      0.001340      0.004421
Cu	      6.26761      1.42132      4.92429         0.013750     -0.008689      0.005484
Ni	      7.67844      7.13700      7.23674        -0.006268     -0.005119     -0.000279
O	      6.17023      8.11811      6.10966        -0.003136     -0.007466      0.001339
O	      2.90333      8.35467      5.96437         0.011725      0.002099      0.010657
O	      7.43403      7.32061      3.53749        -0.006695     -0.004485     -0.006656
O	      4.60711      7.27193      3.63081         0.002954     -0.000544      0.010614
O	      3.01285      6.61953      1.20354        -0.001766     -0.011014      0.010532
O	      6.04416      6.61209      1.19946         0.005794      0.002985      0.013301
O	      7.56226      5.57163      5.92339         0.001549      0.001623      0.011906
O	      4.66917      5.60700      5.98272         0.002363     -0.004289     -0.011543
O	      2.85495      4.97895      3.41644        -0.009711      0.004811     -0.006184
O	      6.05848      4.99442      3.50780         0.001188     -0.000938     -0.002807
O	      4.51851      4.14442      1.25917        -0.005108      0.003726      0.007981
O	      1.39661      4.33861      1.16984         0.003905      0.007463      0.009653
O	      3.26581      2.93591      6.27339        -0.001142      0.001812     -0.007405
O	      6.15616      2.90910      6.24456         0.012489      0.007933      0.004605
O	      4.77319      2.30653      3.82337        -0.000885     -0.000856     -0.010752
O	      1.58605      2.43484      3.74338         0.012952     -0.004398     -0.009120
O	      6.12290      1.40668      1.22192         0.005585      0.007193      0.010425
O	      3.10151      1.41423      1.25300         0.001343      0.009767     -0.004575
