# total energy = -221.85445387 eV
 
CRYSTAL
PRIMVEC
5.942247 -0.027314 0.030720 
1.326246 7.690503 0.051271 
1.657410 2.430928 7.297398 
PRIMCOORD
36 1
Li	      3.06961      1.55393      4.74171         0.007066     -0.005997     -0.008301
Li	      1.49876      0.87873      2.52301        -0.001216     -0.007288     -0.000718
Li	      2.99023      4.93841      0.11233         0.000543      0.001580     -0.009399
Li	      3.09459      6.78343      5.01099         0.006639     -0.001601     -0.003203
Li	      4.32921      2.69767      0.06480         0.003729     -0.013061      0.005747
Li	      1.45374      2.76820      0.03181         0.013417     -0.007838      0.011779
Li	      4.51224      4.25435      4.91164        -0.005156      0.007143     -0.001642
Li	      3.02507      3.24548      2.41822         0.008038     -0.000099     -0.004791
Li	      5.92785      3.20041      2.41933        -0.008801      0.005046      0.009518
Sc	      1.53972      4.17899      4.94358         0.005504     -0.002237      0.004921
Ti	      4.49061      2.64327      7.27033        -0.004886      0.002642      0.000806
V	      1.55186      5.84123      2.40304        -0.001694     -0.000325     -0.007360
Cr	      5.90396      6.77284      4.95783        -0.001848      0.007653      0.008101
Fe	      4.45084      5.81961      2.50582        -0.003104      0.002725     -0.002855
Co	      5.88409      0.02391      0.03806        -0.002690     -0.009946     -0.010200
Cu	      7.49761      7.44849      7.33204        -0.008452     -0.001571      0.007151
Cu	      6.00352      1.64217      4.83419         0.001406     -0.008628     -0.005460
Ni	      4.53110      0.81662      2.47313        -0.010073     -0.007944      0.007622
O	      5.95228      8.57443      5.97504         0.003824     -0.000314      0.003601
O	      2.69701      8.67200      6.14564         0.011065      0.005590      0.002289
O	      7.33061      7.34923      3.51911         0.006727      0.002456     -0.000930
O	      4.49746      7.45363      3.67157        -0.004153      0.006937     -0.001382
O	      2.97957      6.70462      1.22228         0.000190      0.010052      0.008588
O	      5.88221      6.72334      1.25169         0.000221     -0.007497      0.008455
O	      7.43097      5.93920      6.05572        -0.002310     -0.002535      0.004889
O	      4.55008      5.98067      6.09089        -0.002873     -0.001819     -0.001633
O	      2.93890      5.02861      3.59144         0.002956      0.016334      0.000884
O	      6.01207      5.11097      3.72206        -0.000185      0.002036     -0.006164
O	      4.52370      4.27773      1.31438        -0.000520     -0.009171     -0.001634
O	      1.48748      4.35080      1.38796        -0.005026     -0.000472     -0.000667
O	      3.07151      3.31690      6.20770        -0.001157     -0.004347     -0.007502
O	      5.94141      3.39988      6.28440         0.007516      0.005500      0.014354
O	      4.65856      2.38491      3.72411        -0.005949      0.000997     -0.001785
O	      1.46502      2.46078      3.79924         0.003777      0.009427     -0.024054
O	      5.93941      1.45822      1.16935        -0.011767      0.003006     -0.001422
O	      2.94612      1.51161      1.23794        -0.000759      0.003568      0.002400
