# total energy = -232.86731467 eV
 
CRYSTAL
PRIMVEC
5.948737 -0.000730 -0.054248 
1.528116 7.765439 -0.038073 
1.436383 2.753336 7.290608 
PRIMCOORD
36 1
Li	      1.37510      2.69730      7.28345         0.010682     -0.000129     -0.001932
Li	      4.55743      7.74619     -0.02583        -0.013282     -0.001963      0.008562
Li	      5.89924      2.00934      4.97822        -0.001700      0.001843      0.001944
Li	      4.39625      0.88218      2.31057        -0.006150     -0.006862      0.003323
Li	      1.54178      0.93915      2.32325        -0.005664      0.003226     -0.011860
Li	      5.91913      5.20721     -0.02081         0.014344     -0.004056     -0.002817
Li	      4.45111      5.98136      2.28420         0.002713     -0.004356     -0.007942
Li	      1.46449      4.40209      4.83996         0.004060     -0.001055      0.011655
Li	      3.00825      3.48946      2.37130        -0.000417     -0.013336      0.000688
Sc	      4.48892      2.49119      0.06498        -0.013441     -0.013683     -0.005343
Sc	      5.97127      7.03031      4.74241        -0.021362      0.003727      0.015589
Ti	      7.39683      6.13174      2.17484         0.005811     -0.016416     -0.010894
V	      2.84113      1.94442      4.76552         0.003132      0.013952      0.009111
Cr	      3.00881      5.20291     -0.00671        -0.007879      0.000167     -0.022216
Fe	      2.94536      6.99893      4.78918         0.024612      0.006636      0.009518
Co	      1.48546      2.39563     -0.00319         0.009078     -0.000821      0.004777
Cu	      4.43843      4.36975      4.79888         0.009222      0.014748      0.010358
Ni	      5.94474      3.48498      2.42644        -0.001783     -0.005495      0.004820
O	      5.76715      8.76408      5.96605         0.000246     -0.007521     -0.001185
O	      3.07785      8.74187      5.96758         0.000145      0.002300      0.001966
O	      7.46768      7.66594      3.51231         0.002324      0.004115     -0.019855
O	      4.43939      7.96694      3.71572         0.008737      0.000229     -0.011713
O	      2.90275      6.78875      1.17817        -0.003560      0.005283      0.010226
O	      6.07124      6.87215      1.20304        -0.003291      0.002165     -0.004020
O	      7.46371      6.24391      6.00785         0.009490      0.000093     -0.003102
O	      4.43123      6.25568      6.04580         0.005942      0.010977      0.011165
O	      3.02788      5.36204      3.69001        -0.000179      0.009685     -0.014109
O	      6.00163      5.27480      3.53472        -0.012387     -0.002758      0.002109
O	      4.44442      4.33653      1.10306        -0.000483     -0.013048      0.007906
O	      1.54740      4.44021      1.26035         0.004753     -0.000553     -0.004565
O	      2.99199      3.57442      5.96244        -0.001908      0.004924      0.008755
O	      5.86748      3.67934      5.99523         0.001842      0.004148      0.012476
O	      4.40519      2.71580      3.72600        -0.002546     -0.004435     -0.010494
O	      1.54813      2.63479      3.74319        -0.013066      0.009066     -0.004205
O	      5.97631      1.81494      1.23316        -0.007363     -0.001583      0.000480
O	      2.96972      1.75129      1.14990        -0.000675      0.000789      0.000825
