# total energy = -232.98948041 eV
 
CRYSTAL
PRIMVEC
5.924985 0.010322 -0.058829 
1.537054 7.736828 -0.051196 
1.429848 2.733517 7.253465 
PRIMCOORD
36 1
Li	      1.31261      2.73039      7.22193         0.011521      0.000965      0.006008
Li	      3.08878      0.02345      0.00766        -0.002554     -0.009195      0.006170
Li	      5.85888      1.99520      4.92029        -0.004482     -0.001421      0.003806
Li	      4.41375      1.00213      2.26746        -0.006467      0.000917     -0.001109
Li	      1.50711      0.82127      2.41112        -0.001752      0.010491     -0.005819
Li	      5.91150      5.20093     -0.05984        -0.001212      0.010794      0.004986
Li	      4.45283      6.02739      2.30460         0.007795     -0.002436      0.005101
Li	      1.43851      4.35570      4.81556         0.002671      0.003543     -0.005010
Li	      3.06519      3.42987      2.35697         0.003435      0.001347      0.002769
Sc	      5.94417      6.97696      4.71966         0.005077      0.003064     -0.008976
Sc	      1.47895      2.41915     -0.00432        -0.007104      0.000110      0.005090
Ti	      7.36664      6.09252      2.15614        -0.001965     -0.006457     -0.003569
V	      2.86667      1.95283      4.73539        -0.004160      0.007635      0.013382
Cr	      3.03376      5.21295     -0.00239         0.012786     -0.004798      0.002001
Fe	      2.95032      6.99332      4.73827        -0.009491     -0.004134     -0.017114
Co	      4.44513      2.58049     -0.02758         0.001282      0.014090      0.005294
Cu	      4.44448      4.36178      4.76059         0.002137      0.002184      0.006707
Ni	      5.87533      3.44913      2.41705        -0.003524     -0.003065      0.008495
O	      5.77753      8.73815      5.92738        -0.003204     -0.001589      0.007236
O	      3.07327      8.68477      5.93622        -0.003751      0.006592      0.007706
O	      7.44926      7.64429      3.48103        -0.007145     -0.012783      0.001534
O	      4.41501      7.89122      3.67961         0.011372      0.008431     -0.002795
O	      2.92361      6.77969      1.21405         0.001607     -0.005320     -0.004443
O	      6.05294      6.82908      1.17240        -0.009793     -0.004553     -0.017682
O	      7.40806      6.21615      5.98943         0.009605     -0.009330     -0.012436
O	      4.44833      6.26967      6.11674        -0.003527     -0.002513     -0.001686
O	      3.03307      5.33251      3.68786         0.016530      0.001525     -0.005645
O	      6.01310      5.26385      3.48185         0.017318      0.001299     -0.016675
O	      4.46174      4.21253      1.04632         0.001401     -0.013133     -0.004012
O	      1.56846      4.38028      1.22099         0.004625     -0.001952     -0.004530
O	      2.89656      3.51565      5.98915        -0.009037     -0.022056      0.013766
O	      5.83144      3.80141      6.03274        -0.011927      0.007364      0.008665
O	      4.38777      2.55389      3.65133        -0.005598      0.009107      0.010179
O	      1.52309      2.58871      3.70979        -0.014859      0.018293     -0.018120
O	      5.85512      1.85312      1.11179        -0.005770     -0.000440      0.008337
O	      3.04760      1.78892      1.07075         0.008157     -0.002576      0.002388
