# total energy = -233.20151641 eV
 
CRYSTAL
PRIMVEC
6.005545 0.019873 -0.078396 
1.570409 7.706433 -0.076347 
1.431884 2.705305 7.244048 
PRIMCOORD
36 1
Li	      1.32273      2.58919      7.17902        -0.000993      0.001699      0.003088
Li	      4.69171      7.64592     -0.05352        -0.003902      0.004426     -0.001633
Li	      5.95175      1.91423      4.90985         0.003179      0.003702      0.003751
Li	      6.01807      8.60322      2.27176         0.002020     -0.007365      0.003975
Li	      1.52983      0.82852      2.31957         0.001313     -0.003437     -0.002035
Li	      5.93391      5.19164     -0.06609         0.006396     -0.000147      0.001603
Li	      4.53329      5.97069      2.26186        -0.002008     -0.001530     -0.001683
Li	      1.41575      4.38256      4.76888         0.002007     -0.002844      0.000089
Li	      3.06390      3.55447      2.36860        -0.003969     -0.002198      0.001561
Sc	      4.50143      2.49323     -0.05786         0.000491     -0.016749      0.008878
Sc	      1.49610      2.45631      0.03597        -0.009089      0.014616      0.002034
Ti	      7.45758      6.15659      2.18935        -0.018301     -0.002373     -0.008024
V	      2.93549      1.97447      4.71363         0.006339      0.004303      0.006013
Cr	      3.05186      5.18733     -0.04081        -0.011679     -0.008555     -0.008404
Fe	      2.98305      6.95182      4.70776         0.006569      0.020547      0.006854
Co	      4.53653      4.40504      4.70821         0.008616      0.000097      0.006117
Cu	      6.07396      7.04956      4.71739        -0.002060      0.007430     -0.002230
Ni	      5.99434      3.50552      2.34276        -0.001850     -0.024067     -0.013919
O	      5.83691      8.69106      5.92555        -0.002891      0.001670      0.003679
O	      3.16283      8.68628      5.85634         0.003697     -0.003233      0.000236
O	      7.66062      7.68322      3.36338        -0.005623     -0.006185      0.002344
O	      4.57256      7.90362      3.73646         0.002755     -0.000170      0.005788
O	      2.93250      6.74095      1.15176         0.006364     -0.006952     -0.002582
O	      6.14212      6.83633      1.14649        -0.000915     -0.008431      0.008188
O	      7.49076      6.19740      5.89763         0.004189     -0.002596      0.002168
O	      4.35001      6.16286      6.06402        -0.001053      0.010665     -0.001815
O	      3.05257      5.30596      3.62273        -0.006157     -0.006334     -0.013373
O	      6.09339      5.21818      3.43897         0.006340      0.003010      0.000122
O	      4.48699      4.29852      1.08267        -0.004227      0.003688      0.001364
O	      1.56688      4.34866      1.18870         0.006492      0.002083     -0.001289
O	      2.95637      3.42582      5.91192         0.001655     -0.002498     -0.007030
O	      5.93667      3.61586      5.92070         0.002691      0.006477      0.008574
O	      4.35844      2.55363      3.68873        -0.001095      0.003584     -0.001494
O	      1.60405      2.56160      3.69749         0.001880      0.000361     -0.000714
O	      6.01395      1.84445      1.16843        -0.011836      0.013763     -0.006811
O	      2.99524      1.70732      1.09663         0.014653      0.003545     -0.003392
