# total energy = -225.69155156 eV
 
CRYSTAL
PRIMVEC
5.887574 0.011415 -0.043521 
1.528615 7.800692 0.091866 
1.439974 2.885799 7.289452 
PRIMCOORD
36 1
Li	      1.39290      2.94999      7.26668         0.003431      0.001044     -0.006079
Li	      2.99924      0.03335      0.01279         0.003496      0.006115      0.004605
Li	      5.86455      2.09986      5.05784        -0.010715      0.004011     -0.005439
Li	      5.84606      8.71397      2.46544        -0.000316      0.006124      0.000087
Li	      1.50233      0.93927      2.30195        -0.000478      0.004992      0.007990
Li	      5.84421      5.24620      0.11605         0.006359     -0.008040     -0.008210
Li	      4.42614      6.03547      2.38397        -0.000595     -0.005161     -0.000837
Li	      1.47458      4.47998      4.89261        -0.010907      0.001947      0.012783
Li	      2.99632      3.49374      2.34304         0.007557      0.011103      0.009292
Sc	      5.92169      7.08307      4.92917         0.009530     -0.004456      0.000090
Ti	      7.34435      6.23104      2.29824        -0.008409     -0.005843      0.008167
V	      2.89180      2.09295      4.73255        -0.001738      0.010072      0.004719
Cr	      3.00654      5.25048      0.10886         0.003531     -0.011112     -0.003713
Fe	      2.95534      7.12856      4.85197        -0.014566      0.002605      0.005630
Co	      4.41038      2.46274      0.07218        -0.004234     -0.001975      0.000185
Co	      1.48394      2.61664      0.08137         0.000498      0.001852     -0.002502
Cu	      4.46078      4.50765      4.81220        -0.008954      0.000433     -0.001118
Ni	      5.87807      3.54009      2.43526        -0.000296     -0.007280     -0.010098
O	      5.79795      8.85670      6.08317         0.007802      0.006683      0.008470
O	      3.12620      8.91846      6.02961        -0.002709      0.004482     -0.003174
O	      7.37585      7.75861      3.63422         0.005753      0.006592     -0.000203
O	      4.42270      8.05073      3.85384        -0.004696     -0.000892     -0.006699
O	      2.90565      6.86597      1.29294        -0.003149      0.002963     -0.008559
O	      6.01130      6.98515      1.32987         0.009857     -0.001488     -0.010276
O	      7.48941      6.36123      6.14731        -0.006625     -0.007418     -0.005767
O	      4.30070      6.46187      6.26699        -0.004064      0.007061      0.006046
O	      3.01035      5.46835      3.77971         0.008523      0.000298     -0.005989
O	      5.94346      5.35994      3.64144         0.006596     -0.008044     -0.006192
O	      4.41696      4.32714      1.20039         0.006913     -0.008381     -0.005935
O	      1.52662      4.52186      1.36245         0.008365      0.025220      0.003865
O	      2.98243      3.51038      5.88740         0.002126     -0.010262     -0.011097
O	      5.82686      3.84853      6.02966         0.003958     -0.001113      0.003743
O	      4.30243      2.53105      3.64714        -0.016976     -0.006732      0.012976
O	      1.54789      2.69282      3.73474         0.010695     -0.010989      0.008003
O	      6.04245      1.92976      1.16040        -0.001872     -0.007086      0.002062
O	      2.80156      1.83004      1.09601        -0.003693      0.002675      0.003171
