# total energy = -102.60320410 eV
 
CRYSTAL
PRIMVEC
-0.001025 2.115767 2.135093 
6.139689 0.007051 -2.146440 
-2.023000 6.319278 -4.240374 
PRIMCOORD
16 1
Li	      0.13369      0.01966     -0.03290         0.008382      0.017894     -0.017521
Li	      1.88552      2.11112     -0.00174        -0.035387      0.002501     -0.007916
Li	      0.06637      4.26617     -0.09327        -0.011567     -0.005664      0.016789
Li	      4.23655      4.33203     -4.32742         0.002699     -0.009542      0.010842
Ti	      4.17689      2.07549     -2.25313         0.425396      0.110721     -0.145343
Ti	      2.10164      6.38643     -4.12810         0.142157     -0.012706      0.091404
Ni	      1.96774      4.11149     -2.04843         0.029788      0.067110     -0.056685
Ni	     -0.08291      6.31631     -2.08537        -0.095815      0.007002     -0.021158
O	      4.05683      4.04694     -2.02722         0.117325     -0.080050      0.171856
O	      4.06566      2.09760      0.01400         0.005329     -0.033681      0.000757
O	      2.09557      6.44705     -2.19034         0.071951      0.088340     -0.165856
O	      2.14621      2.10229     -2.16441         0.062446     -0.122577      0.120718
O	      3.97093      6.35128     -4.24146        -0.300861      0.000361      0.005963
O	      0.15520      6.29586     -4.20119         0.131456      0.088038     -0.080982
O	      0.01994      4.27720     -2.18061        -0.134243     -0.100144      0.092770
O	     -0.15147      2.07226      0.01586        -0.419054     -0.017603     -0.015637
