# total energy = -233.51071165 eV
 
CRYSTAL
PRIMVEC
5.895597 -0.008646 -0.039064 
1.504899 7.860336 0.070340 
1.438521 2.884556 7.340524 
PRIMCOORD
36 1
Li	      1.40185      2.83712      7.27339        -0.005952      0.006636      0.010380
Li	      4.48194      7.84869      0.13955         0.002370      0.008720      0.011406
Li	      5.84189      2.08475      5.10971         0.002481     -0.000185     -0.007152
Li	      5.85081      8.78116      2.46654         0.001830     -0.005118     -0.000596
Li	      1.51030      0.97572      2.32355         0.004296      0.005593      0.001934
Li	      5.85823      5.28993      0.08878         0.002815     -0.003569     -0.005465
Li	      4.42079      6.06468      2.36687        -0.002304      0.006016     -0.008970
Li	      1.45064      4.52242      4.91467         0.001477      0.000528      0.002080
Li	      2.96216      3.53265      2.37060        -0.003249     -0.013533     -0.002897
Sc	      4.44260      2.48246      0.08021        -0.003736     -0.000328     -0.004383
Sc	      5.92119      7.18337      4.86693         0.011413     -0.005286      0.003247
Ti	      7.34569      6.26328      2.29502        -0.014284     -0.005994     -0.004975
V	      2.86278      2.09437      4.77563         0.021434      0.020441      0.000730
Cr	      2.98898      5.27255      0.07427         0.016219     -0.008614      0.004184
Fe	      2.93905      7.15382      4.87884        -0.016928     -0.004310      0.006134
Co	      4.43722      4.49472      4.83661        -0.007544     -0.018790      0.002373
Cu	      1.46717      2.58733      0.07241        -0.005534      0.002497      0.007837
Ni	      5.90718      3.58605      2.45824        -0.006397      0.005102     -0.004056
O	      5.77532      8.89263      6.10038        -0.005058     -0.007343      0.004896
O	      3.09149      8.91512      6.05286        -0.005254      0.001156     -0.002000
O	      7.40243      7.81396      3.62880         0.008607     -0.004073      0.006177
O	      4.40142      8.13000      3.85461        -0.009883     -0.001569      0.002921
O	      2.90492      6.88396      1.25284        -0.004108     -0.004221     -0.000589
O	      6.00966      7.00601      1.32390         0.009735     -0.009776      0.002900
O	      7.42180      6.36832      6.13693         0.004833     -0.007485     -0.001164
O	      4.37620      6.43090      6.20469        -0.001340      0.008135     -0.010620
O	      2.98320      5.50152      3.80581        -0.009549      0.011862     -0.005970
O	      5.94353      5.39771      3.63805         0.016398      0.003775     -0.007993
O	      4.40388      4.36725      1.18779         0.000237      0.002676      0.010813
O	      1.52732      4.59347      1.38406         0.000762      0.000783      0.001884
O	      2.92146      3.43358      5.94974         0.003774      0.001451     -0.017247
O	      5.82692      3.79393      6.10173         0.004273     -0.000904      0.004868
O	      4.30524      2.64536      3.74506        -0.019766      0.011340      0.011811
O	      1.53459      2.70534      3.76750         0.004080      0.005610     -0.006304
O	      5.96578      1.90657      1.27668         0.006898      0.000901     -0.002204
O	      2.88695      1.78663      1.15730        -0.003046     -0.002125     -0.003989
