# total energy = -233.03662920 eV
 
CRYSTAL
PRIMVEC
5.981147 0.045358 -0.091685 
1.597377 7.772297 -0.083220 
1.420894 2.730148 7.231897 
PRIMCOORD
36 1
Li	      1.36411      2.78982      7.21773        -0.001422      0.004303      0.000112
Li	      4.67712      7.77363     -0.06838        -0.008083      0.006643      0.002581
Li	      5.96042      1.96306      4.92024        -0.001750      0.001153      0.009852
Li	      4.45329      0.99404      2.28036        -0.007594     -0.002491      0.006160
Li	      1.48894      0.88599      2.30805         0.000754      0.002617     -0.001492
Li	      5.98605      5.19643     -0.05278        -0.001020      0.001145      0.001223
Li	      4.52774      6.09804      2.22215        -0.000089     -0.000411      0.002424
Li	      1.47019      4.40228      4.86833         0.000128     -0.001113     -0.002658
Li	      3.04775      3.46638      2.26395        -0.003760     -0.002500     -0.004272
Sc	      4.48576      4.36589      4.73781        -0.010276     -0.009221     -0.000008
Sc	      6.07781      7.06750      4.69430         0.023235     -0.003773     -0.013466
Ti	      7.48708      6.16684      2.08943        -0.000498      0.015377      0.005896
V	      2.83040      1.93434      4.71095         0.001712      0.023130     -0.010976
Cr	      3.07171      5.19574     -0.06059         0.005357     -0.005812      0.010166
Fe	      3.00413      7.03556      4.67810        -0.007784     -0.002722     -0.009909
Co	      1.49896      2.46915      0.00936        -0.004778     -0.001491     -0.001130
Cu	      4.49886      2.51531      0.02666         0.010763      0.000921      0.006052
Ni	      5.98233      3.50413      2.32646         0.006473     -0.006204      0.000307
O	      5.83548      8.76589      5.88969        -0.004469     -0.002978      0.002467
O	      3.14458      8.73382      5.85707        -0.000753      0.002783      0.000843
O	      7.52657      7.73971      3.40281        -0.000201     -0.018091      0.008724
O	      4.50599      7.95693      3.61537         0.003161      0.000339      0.003209
O	      2.95187      6.78453      1.13294        -0.004603     -0.007559     -0.007399
O	      6.12351      6.89427      1.15143        -0.001239     -0.005582     -0.005525
O	      7.62686      6.29491      5.88146         0.008034     -0.000780     -0.004359
O	      4.49745      6.25124      5.92729        -0.003589      0.007082      0.000657
O	      3.02260      5.39232      3.57508        -0.000995      0.000931      0.000662
O	      6.03960      5.29261      3.48252         0.004560      0.004906      0.006821
O	      4.49598      4.27129      1.03505        -0.005023      0.002633     -0.005948
O	      1.58179      4.42459      1.19439        -0.004333     -0.007829     -0.009098
O	      2.96656      3.54175      5.90936         0.006333      0.001702     -0.003760
O	      5.92781      3.70395      6.01230         0.000150     -0.001488      0.000460
O	      4.41249      2.65190      3.64793        -0.000683     -0.003043      0.001999
O	      1.53011      2.61390      3.68780         0.010711      0.004516      0.003456
O	      5.98326      1.88323      1.13393        -0.002308      0.005759      0.002654
O	      2.87724      1.81192      1.06579        -0.006125     -0.002853      0.003274
