# total energy = -233.23041167 eV
 
CRYSTAL
PRIMVEC
5.938009 0.028613 -0.058393 
1.563966 7.756593 -0.019535 
1.442730 2.772945 7.276204 
PRIMCOORD
36 1
Li	      1.42979      2.74485      7.19307         0.000585     -0.007949     -0.015281
Li	      4.57330      7.78045      0.03985        -0.008610     -0.002717      0.017690
Li	      5.89394      1.91690      4.92434         0.004525     -0.001469      0.008749
Li	      5.95982      8.65581      2.47685         0.006211      0.003889      0.005237
Li	      1.51537      0.93023      2.29239         0.001708     -0.005817     -0.003803
Li	      5.92842      5.25892     -0.02000        -0.012341     -0.002839      0.000208
Li	      4.48855      6.09447      2.29295         0.010474      0.007208     -0.003628
Li	      1.49095      4.42358      4.86345         0.002266      0.006573      0.002168
Li	      2.98986      3.49278      2.34522        -0.001303     -0.006592     -0.003106
Sc	      4.52048      2.53222      0.02989        -0.023621     -0.007158      0.002587
Sc	      4.48004      4.38838      4.74348        -0.002309      0.023307      0.015643
Ti	      7.40884      6.24236      2.22706        -0.006225      0.018960     -0.013365
V	      2.84164      1.93299      4.75225         0.010785     -0.002931      0.024453
Cr	      3.00907      5.18242      0.01421        -0.002958      0.009658     -0.009619
Fe	      2.93626      7.04653      4.76822         0.005344      0.001005     -0.002563
Co	      1.49920      2.51993      0.02008         0.007293      0.000305     -0.012571
Cu	      6.00199      7.08081      4.75635        -0.015885     -0.010818      0.014651
Ni	      5.99019      3.52875      2.38886         0.005514     -0.011821     -0.003352
O	      5.80249      8.67536      5.93297         0.002278      0.018629      0.012569
O	      3.09416      8.72891      5.96657         0.004548      0.001222     -0.021392
O	      7.56637      7.78511      3.44928        -0.000263     -0.013833     -0.001902
O	      4.49938      7.90882      3.75052         0.012387      0.005337      0.003853
O	      2.93634      6.78791      1.16258         0.001411     -0.010461      0.004964
O	      6.06947      6.95425      1.23722         0.000149     -0.007881     -0.007622
O	      7.51198      6.22272      6.04715         0.000225      0.001670      0.006023
O	      4.28882      6.17206      6.17134        -0.013163     -0.010718      0.000362
O	      2.98695      5.40241      3.67131         0.002619      0.003610     -0.000113
O	      6.01716      5.33736      3.56552        -0.003849     -0.022499     -0.012935
O	      4.46162      4.33793      1.12481         0.003965     -0.007903      0.010686
O	      1.54828      4.46765      1.28563        -0.003324      0.003184     -0.009394
O	      2.99645      3.49746      5.94599         0.002934      0.004466     -0.008372
O	      5.90970      3.70798      6.02698        -0.004487      0.000248     -0.000407
O	      4.40798      2.66388      3.65435         0.008920     -0.003685      0.001104
O	      1.55866      2.61758      3.71196         0.006753      0.000461      0.003390
O	      6.08809      1.90169      1.15374        -0.001847      0.014858      0.009140
O	      2.88462      1.80848      1.09881        -0.000708      0.012498     -0.014052
