# total energy = -233.07443861 eV
 
CRYSTAL
PRIMVEC
5.981521 0.029073 -0.070967 
1.575891 7.722820 -0.108172 
1.438048 2.680661 7.254682 
PRIMCOORD
36 1
Li	      1.34646      2.65664      7.23414         0.002451     -0.001798      0.000354
Li	      4.65704      7.71794     -0.07861        -0.008787     -0.004105      0.007379
Li	      5.93363      1.96510      4.93131         0.001047     -0.001990      0.015108
Li	      4.42550      0.95019      2.27209        -0.007510     -0.002439     -0.002059
Li	      1.55179      0.84091      2.35513        -0.005456     -0.007611     -0.002653
Li	      5.94805      5.16696     -0.09518         0.004111      0.005552     -0.005208
Li	      4.50355      5.96927      2.24401        -0.001285     -0.010229     -0.002271
Li	      1.46628      4.35685      4.79932         0.004183     -0.001664     -0.004136
Li	      3.08635      3.46457      2.34082        -0.003509     -0.004627     -0.006753
Sc	      6.03057      6.94151      4.69357         0.005253      0.008524      0.007141
Sc	      1.48963      2.46121      0.01270        -0.010853      0.021891     -0.007522
Ti	      7.44535      6.10997      2.09455        -0.012431      0.006246     -0.012402
V	      2.87983      1.94087      4.73322         0.003864      0.003343      0.018954
Cr	      3.07410      5.18371     -0.07440        -0.013656      0.002839     -0.001254
Fe	      2.99735      6.96781      4.66573         0.003522      0.002253     -0.008530
Co	      4.47504      4.35101      4.78240         0.000805      0.003898     -0.001786
Cu	      4.47736      2.47632      0.04094        -0.002012     -0.009028      0.011414
Ni	      5.94793      3.44878      2.39184        -0.004531     -0.008962     -0.002601
O	      5.84338      8.68908      5.89427         0.008164     -0.005328     -0.006866
O	      3.16061      8.68974      5.86235         0.005331      0.009972      0.002681
O	      7.51608      7.63265      3.40117        -0.008561     -0.009361     -0.006730
O	      4.50061      7.89997      3.62824        -0.000008      0.013182      0.001074
O	      2.95261      6.73014      1.14986         0.004777     -0.004931     -0.004593
O	      6.12921      6.82431      1.10025         0.013565     -0.015720      0.009357
O	      7.58920      6.25075      5.85256         0.013813     -0.008127      0.008862
O	      4.44058      6.21346      5.95705        -0.008060     -0.001080     -0.000553
O	      3.11312      5.28856      3.61368         0.000543     -0.003671     -0.008851
O	      6.08898      5.23404      3.43176         0.006811     -0.010653     -0.002906
O	      4.49579      4.21697      1.02997         0.002646     -0.008158     -0.001094
O	      1.59137      4.36607      1.15950        -0.006628     -0.002256      0.003023
O	      2.95008      3.48658      5.94379         0.005969      0.006375     -0.002116
O	      5.87068      3.72874      5.97117         0.003202      0.005901      0.013621
O	      4.40517      2.62272      3.71647        -0.003691      0.001389     -0.011353
O	      1.55017      2.58987      3.72546         0.000718      0.012859     -0.013224
O	      6.02368      1.81923      1.17582        -0.007360      0.016608      0.012961
O	      2.94252      1.71197      1.14527         0.013562      0.000904      0.003531
