# total energy = -225.73618854 eV
 
CRYSTAL
PRIMVEC
5.878142 0.010116 -0.063191 
1.525661 7.780790 -0.019527 
1.413660 2.781854 7.266263 
PRIMCOORD
36 1
Li	     -0.08595     -0.03476      0.02742         0.016442      0.004736      0.000173
Li	      4.48441      7.76236      0.04844         0.006613     -0.005631     -0.002163
Li	      5.82354      2.00056      4.95711        -0.005079     -0.009137      0.004850
Li	      4.35639      0.90926      2.34768         0.000708      0.005215     -0.004544
Li	      1.51421      0.85437      2.35835         0.002997      0.002214      0.006753
Li	      5.83167      5.24676     -0.11431        -0.001364     -0.002781     -0.006291
Li	      4.42762      6.07924      2.35072         0.005572     -0.004395     -0.009503
Li	      1.43776      4.47093      4.80832        -0.006213     -0.002244      0.001435
Li	      3.00245      3.44133      2.37160         0.003574     -0.002446     -0.004093
Sc	      1.44377      2.49199      0.00001         0.004816      0.004777      0.001214
Ti	      7.22459      6.13008      2.22236        -0.010854     -0.004253     -0.007905
V	      2.86798      1.97999      4.80400        -0.004449     -0.012362      0.016642
Cr	      2.98717      5.23301     -0.00789         0.020497      0.012450     -0.004292
Fe	      2.93663      7.09820      4.75693        -0.001202      0.008256     -0.006827
Co	      4.38766      2.53617      0.03566        -0.007272      0.007846      0.012102
Co	      4.42843      4.44798      4.72478         0.002727      0.010921      0.006580
Cu	      5.93864      7.12427      4.78853        -0.008030      0.001214     -0.005040
Ni	      5.88718      3.41846      2.39979         0.002180     -0.005969     -0.001738
O	      5.69804      8.96352      6.04812        -0.004888     -0.008772      0.007302
O	      3.01750      8.80360      5.97640        -0.009515      0.003586      0.000128
O	      7.39011      7.67390      3.45896         0.020743     -0.004941      0.002862
O	      4.47202      7.98105      3.75816        -0.001127     -0.001191      0.003546
O	      2.86782      6.76209      1.24288         0.000740      0.002615     -0.002371
O	      5.95622      6.86579      1.19769         0.011466     -0.004961      0.000518
O	      7.35937      6.32348      5.91420        -0.010027     -0.006567      0.004287
O	      4.38106      6.32350      6.04206        -0.007240     -0.006814      0.010383
O	      3.08727      5.35875      3.71553        -0.011568      0.005639     -0.002702
O	      5.96213      5.14848      3.42056        -0.001178      0.005171     -0.000378
O	      4.42109      4.20272      1.01008        -0.004665     -0.001730     -0.009420
O	      1.55345      4.37881      1.20579        -0.002506     -0.003945     -0.004417
O	      2.91521      3.64529      5.96127        -0.001034      0.010018      0.004925
O	      5.76043      3.89161      6.00197         0.004704     -0.002422      0.013470
O	      4.39056      2.74666      3.73242        -0.002755     -0.005894     -0.014449
O	      1.55300      2.60190      3.72538        -0.009488      0.004492     -0.007236
O	      5.86184      1.79034      1.14994        -0.001686      0.004071      0.002956
O	      2.94168      1.74577      1.13476         0.008362      0.003234     -0.006759
