# total energy = -225.71418540 eV
 
CRYSTAL
PRIMVEC
5.859787 0.004587 -0.043893 
1.512109 7.788647 0.054746 
1.429942 2.847236 7.270576 
PRIMCOORD
36 1
Li	      1.42151      2.81522      7.22024        -0.006030     -0.000346     -0.009411
Li	      2.96299     -0.00229     -0.00274        -0.008567      0.004202      0.004710
Li	      5.81472      2.02793      5.02152         0.005189      0.000162      0.007874
Li	      5.78816      8.63244      2.50584         0.013264     -0.001323      0.005201
Li	      1.49485      0.91894      2.28236        -0.001211     -0.000333      0.007228
Li	      5.80985      5.27129      0.03808         0.000148      0.005726     -0.009745
Li	      4.39710      6.02884      2.37224        -0.003562     -0.002792     -0.001741
Li	      1.47054      4.47094      4.86498         0.006504     -0.002262     -0.004850
Li	      2.96837      3.54189      2.39209         0.002155      0.007499      0.010948
Sc	      4.42542      2.51923      0.01252         0.003593      0.010582      0.001907
Ti	      7.27039      6.22982      2.32449        -0.005357      0.007825      0.002034
V	      2.88669      2.04987      4.71303        -0.010557     -0.006847     -0.023805
Cr	      2.97860      5.25700      0.06734        -0.003975      0.002768      0.015734
Fe	      2.93301      7.08967      4.82974         0.011198     -0.002992     -0.004165
Co	      5.88817      7.12362      4.84186        -0.009013      0.004477     -0.014862
Co	      1.48347      2.71454      0.12972        -0.011216     -0.002857      0.007614
Cu	      4.44401      4.49416      4.77339        -0.005272      0.001674     -0.004590
Ni	      5.84772      3.51771      2.45392        -0.002839     -0.003182     -0.000672
O	      5.74941      8.82729      6.03602         0.001536     -0.001778     -0.003272
O	      3.07401      8.87593      5.99859         0.004988      0.002150      0.001171
O	      7.37361      7.72514      3.55097        -0.001681     -0.002418     -0.008669
O	      4.38020      8.02989      3.82228         0.005941     -0.015150     -0.000096
O	      2.86514      6.83240      1.27200        -0.001565     -0.008498      0.004050
O	      5.96424      6.94373      1.29749         0.006906     -0.002464      0.015422
O	      7.44075      6.29388      6.11078        -0.011098     -0.002557      0.007941
O	      4.28149      6.41633      6.24198         0.000352     -0.013002     -0.002380
O	      2.99122      5.41238      3.74383         0.004348     -0.002482     -0.002918
O	      5.91851      5.30458      3.60011         0.003397     -0.000163      0.004716
O	      4.38787      4.33430      1.18425        -0.000946      0.001692     -0.007144
O	      1.50474      4.41623      1.26670         0.003153     -0.009447     -0.007701
O	      2.97035      3.48081      5.87231        -0.004399      0.013441      0.020742
O	      5.79728      3.76835      6.00047         0.009270      0.004972     -0.005346
O	      4.28586      2.50846      3.62940         0.004007      0.003734     -0.006229
O	      1.54162      2.66069      3.71765         0.003271      0.001471      0.001568
O	      5.99719      1.90814      1.16691         0.001064      0.009181     -0.002089
O	      2.81003      1.81508      1.08467        -0.002995     -0.000662      0.000826
