# total energy = -225.89794079 eV
 
CRYSTAL
PRIMVEC
5.916243 0.039824 -0.077101 
1.573114 7.724192 -0.053392 
1.419283 2.736370 7.227218 
PRIMCOORD
36 1
Li	      1.41169      2.76477      7.18454        -0.006884     -0.005236     -0.005258
Li	      4.56831      7.75226      0.02434        -0.007037     -0.000720     -0.007550
Li	      5.86125      1.82028      4.81458         0.006039     -0.009547     -0.015242
Li	      5.95919      8.65100      2.35928         0.008178     -0.004915      0.005734
Li	      1.49311      0.90504      2.27282        -0.004410      0.008217     -0.006559
Li	      5.90243      5.19348     -0.08043        -0.002283      0.005030      0.003113
Li	      4.48992      6.14378      2.29934        -0.004759      0.008461      0.007264
Li	      1.48958      4.43343      4.84529        -0.000747     -0.002857     -0.003817
Li	      2.99058      3.44825      2.29766        -0.006574     -0.000344     -0.002600
Sc	      4.46238      4.40003      4.71467         0.012466      0.000158     -0.003691
Ti	      7.38243      6.20605      2.16334        -0.006340     -0.003678     -0.005744
V	      2.83608      1.91796      4.72286         0.006126     -0.006924      0.003833
Cr	      3.00816      5.14447     -0.02913        -0.006937     -0.000926      0.000682
Fe	      2.92867      7.01608      4.70363         0.005566      0.001440      0.012596
Co	      4.45443      2.48575      0.04295        -0.014866     -0.005515      0.002439
Co	      1.46495      2.53135     -0.00342         0.004536     -0.003265      0.011062
Cu	      5.98879      7.02329      4.72565         0.012396      0.005605      0.010799
Ni	      5.95966      3.48817      2.33983        -0.001689      0.006502     -0.000451
O	      5.78569      8.64607      5.87946         0.003803     -0.002702     -0.000357
O	      3.08163      8.69482      5.89061         0.004333      0.011774     -0.001260
O	      7.54293      7.76487      3.36408        -0.004670      0.014718      0.002709
O	      4.50908      7.85620      3.68378         0.001314      0.001279      0.000433
O	      2.94649      6.74546      1.13512         0.004650      0.011266      0.000925
O	      6.03946      6.90785      1.17628        -0.000820     -0.000869      0.007662
O	      7.47764      6.21498      5.93786        -0.000464      0.001720     -0.001618
O	      4.24691      6.12850      6.11423        -0.006523      0.003774     -0.004689
O	      2.98927      5.36236      3.60922         0.003126     -0.012491     -0.006833
O	      5.99540      5.28671      3.49947         0.000767      0.001240      0.006199
O	      4.45248      4.18914      1.01791         0.002897     -0.000927      0.000575
O	      1.54842      4.43056      1.24108        -0.011664     -0.011124      0.010003
O	      2.98401      3.48324      5.90439        -0.001415      0.001233     -0.003826
O	      5.89873      3.79357      6.06710         0.001564     -0.001177     -0.003973
O	      4.40518      2.65357      3.64237         0.007666     -0.004049     -0.005835
O	      1.54526      2.59150      3.68018        -0.007891     -0.002595     -0.010748
O	      6.02577      1.89858      1.07869         0.005399     -0.003468      0.005297
O	      2.85975      1.81671      1.05890         0.005148      0.000912     -0.001272
