# total energy = -225.70540729 eV
 
CRYSTAL
PRIMVEC
5.885417 0.013835 -0.052520 
1.530865 7.682647 -0.021920 
1.429628 2.740690 7.221801 
PRIMCOORD
36 1
Li	      1.37141      2.67707      7.17583        -0.005454     -0.003189     -0.009482
Li	      4.51535      7.69134      0.00135        -0.009110     -0.007177      0.003561
Li	      5.83726      1.94776      4.90237         0.005765      0.003867      0.004543
Li	      5.88134      8.53045      2.38471        -0.001784     -0.010999     -0.004133
Li	      1.50705      0.91736      2.28552        -0.003835      0.001051     -0.001177
Li	      5.85450      5.17797     -0.03812         0.000255     -0.001495      0.006680
Li	      4.42524      5.97210      2.33295         0.002569     -0.004234     -0.012383
Li	      1.45119      4.38251      4.80333         0.001332      0.000019      0.008205
Li	      2.98832      3.52070      2.38681        -0.002324     -0.000407      0.001483
Sc	      4.44805      2.48766     -0.00646         0.009021      0.001686      0.005478
Ti	      7.31559      6.13642      2.21274        -0.009024     -0.004559     -0.008219
V	      2.85590      1.95366      4.70579         0.012068     -0.004783      0.011923
Cr	      2.97809      5.13133      0.00349         0.001671     -0.013039      0.006402
Fe	      2.93460      6.95654      4.72128         0.006046      0.003552     -0.003203
Co	      4.41648      4.37384      4.76042         0.012579      0.009168     -0.003353
Co	      1.47425      2.47479      0.01601        -0.010034      0.002311      0.009730
Cu	      5.93455      6.99174      4.72763         0.004065      0.001143      0.006332
Ni	      5.89327      3.46564      2.40707        -0.001265      0.002474     -0.001175
O	      5.75582      8.60203      5.89441         0.008271      0.006654     -0.002314
O	      3.06712      8.66074      5.92024        -0.015045      0.007395     -0.007408
O	      7.49780      7.66182      3.41712         0.002061      0.009238     -0.003740
O	      4.47208      7.85685      3.69847        -0.003468      0.003477     -0.005075
O	      2.88481      6.71738      1.15746        -0.010345      0.008087      0.001614
O	      5.99450      6.85025      1.21796         0.007711     -0.008018      0.002933
O	      7.44054      6.14631      6.00255        -0.001017      0.004966     -0.005007
O	      4.24552      6.06304      6.07885         0.001580      0.000707     -0.004310
O	      3.01847      5.27754      3.68192         0.008548     -0.002888     -0.003639
O	      5.87346      5.24973      3.62172        -0.003009     -0.000178      0.002607
O	      4.41033      4.28410      1.11037         0.001120     -0.004750      0.002300
O	      1.51915      4.40065      1.27864        -0.007374     -0.000716      0.004586
O	      3.05618      3.54135      5.84894         0.005131      0.000909     -0.003491
O	      5.78794      3.64557      5.91524        -0.000240     -0.000382      0.000508
O	      4.39108      2.76194      3.70313         0.001817      0.002534      0.004796
O	      1.54773      2.60178      3.68097        -0.008903      0.001993     -0.005831
O	      5.98882      1.82469      1.14343        -0.004459     -0.001178     -0.001993
O	      2.85976      1.76350      1.10291         0.005080     -0.003241      0.002254
