# total energy = -226.07760565 eV
 
CRYSTAL
PRIMVEC
5.893658 -0.027958 -0.006268 
1.478870 7.768892 0.052544 
1.468727 2.824125 7.282678 
PRIMCOORD
36 1
Li	     -0.04487      0.11582      0.03753         0.004094     -0.007968     -0.001127
Li	      4.48912      7.77630      0.14623         0.002275      0.004479      0.003637
Li	      5.87098      1.98338      5.07641        -0.003100      0.014828      0.012877
Li	      4.41525      0.93100      2.33265        -0.003435      0.000359      0.008029
Li	      1.51749      0.93902      2.32323        -0.001766      0.006543      0.000803
Li	      5.86589      5.17684      0.08710        -0.008083      0.002800     -0.003264
Li	      4.41369      6.08973      2.40602         0.002463     -0.004855     -0.001176
Li	      1.45195      4.46850      4.91161         0.003299      0.002766     -0.005368
Li	      2.97420      3.45183      2.33528         0.004764     -0.000970     -0.003828
Sc	      5.90232      7.02481      4.87524        -0.001136      0.012620     -0.013129
Ti	      7.33178      6.14937      2.30345        -0.002940      0.010680     -0.006656
V	      2.88135      2.03511      4.74981         0.005661      0.000867     -0.006312
Cr	      2.96857      5.18197      0.06588         0.008475      0.004879     -0.002705
Fe	      2.91895      7.04278      4.83627         0.001020      0.002623     -0.009388
Co	      4.42609      2.47449      0.08960        -0.003717     -0.005584      0.000924
Co	      4.42552      4.43176      4.83896        -0.000774      0.003774     -0.006434
Cu	      1.46159      2.53574      0.05523         0.007768     -0.015978      0.010562
Ni	      5.90223      3.47385      2.43629        -0.005645     -0.006258      0.006862
O	      5.77915      8.76479      6.05397         0.002967     -0.002386      0.004321
O	      3.08627      8.78219      6.00596        -0.002792     -0.005109      0.009539
O	      7.38926      7.69761      3.63753        -0.010164     -0.006827     -0.005715
O	      4.39661      7.99040      3.79927        -0.000359     -0.000105      0.008746
O	      2.91490      6.79549      1.25525        -0.009250     -0.011925      0.000227
O	      5.99304      6.88906      1.32573         0.006701     -0.009253      0.002685
O	      7.39014      6.21622      6.13421         0.008193     -0.005770     -0.000128
O	      4.32209      6.32436      6.13110        -0.002126     -0.015341      0.014561
O	      2.96320      5.39661      3.75551         0.005525      0.003005      0.002766
O	      5.92516      5.28025      3.61537        -0.006313     -0.005221      0.005702
O	      4.40023      4.17240      1.10259         0.001734      0.003536     -0.001566
O	      1.52523      4.51098      1.36308        -0.003301      0.001844     -0.006458
O	      2.92905      3.37386      5.92103        -0.002636      0.003425      0.001484
O	      5.82746      3.83017      6.15838        -0.007432      0.004896      0.001412
O	      4.33340      2.59862      3.73435         0.006246      0.005287     -0.005529
O	      1.54604      2.63486      3.73704         0.002956      0.006684      0.000880
O	      5.97945      1.82701      1.25018         0.010637      0.004179     -0.005213
O	      2.95907      1.80770      1.08383        -0.009806      0.003475     -0.012017
