# total energy = -225.09262073 eV
 
CRYSTAL
PRIMVEC
5.930471 0.026279 -0.048235 
1.559381 7.633882 -0.121902 
1.452383 2.631542 7.158159 
PRIMCOORD
36 1
Li	      1.43727      2.69853      7.13846        -0.001729      0.006265     -0.002915
Li	      3.04475      0.03468      0.04970         0.004999      0.004082     -0.001186
Li	      5.88937      1.74991      4.82956         0.000799      0.000693     -0.005044
Li	      5.95052      8.51599      2.27952         0.008173     -0.000932      0.007489
Li	      1.52077      0.84930      2.25650         0.005928      0.002350     -0.001574
Li	      5.90414      5.11393     -0.10522        -0.001837     -0.002148      0.001494
Li	      4.48122      6.05590      2.26327        -0.002539      0.006910      0.006412
Li	      1.49297      4.31392      4.80924         0.004265      0.001311      0.001127
Li	      3.01075      3.38636      2.26834         0.000585      0.001439     -0.002321
Sc	      4.50289      4.30282      4.68824        -0.010396      0.005298      0.005700
Ti	      7.38119      6.08215      2.14392         0.010454      0.001286      0.001902
V	      2.86299      1.83634      4.70108         0.006380     -0.007823      0.000756
Cr	      3.02756      5.08038     -0.07173         0.008841      0.006895     -0.010422
Fe	      2.91046      6.87336      4.62906        -0.003535     -0.013402      0.003998
Co	      5.97730      6.87230      4.64851        -0.005230     -0.000002     -0.004537
Co	      1.49975      2.53600     -0.04157         0.005581     -0.002828      0.008430
Cu	      4.49779      2.47763      0.01962        -0.002049      0.001736     -0.014628
Ni	      5.98745      3.38779      2.32028        -0.013414      0.005019      0.008856
O	      5.80687      8.50336      5.78272        -0.001515      0.000871      0.007457
O	      3.10904      8.54165      5.80443         0.003642      0.003762      0.004315
O	      7.49595      7.61915      3.33557         0.003521      0.005101      0.013291
O	      4.49658      7.72288      3.59441        -0.004822     -0.002320     -0.003765
O	      2.93801      6.64817      1.11597        -0.002314      0.005820      0.006802
O	      6.04699      6.77507      1.14098        -0.006308     -0.003769     -0.006326
O	      7.47442      6.07493      5.86426        -0.012063     -0.001910     -0.002887
O	      4.28792      6.04487      5.94557        -0.002436     -0.004455     -0.001630
O	      2.98386      5.23420      3.52299         0.000916      0.002720      0.009821
O	      6.01537      5.17223      3.44484         0.001515     -0.004771      0.008182
O	      4.45974      4.11548      1.00955        -0.008398     -0.011790     -0.006588
O	      1.54422      4.26145      1.10765         0.007390      0.001800     -0.007845
O	      2.99647      3.47783      5.89939         0.012196      0.000697      0.000205
O	      5.92872      3.61635      6.01178        -0.002904     -0.003882     -0.003887
O	      4.43049      2.55963      3.61648        -0.005951     -0.000747     -0.016087
O	      1.57309      2.52124      3.66078        -0.001258      0.007646     -0.013242
O	      6.13037      1.84328      1.05378        -0.002301     -0.006609      0.003870
O	      2.87420      1.80761      0.99811         0.005815     -0.004313      0.004780
