# total energy = -223.69594626 eV
 
CRYSTAL
PRIMVEC
5.826433 -0.017035 -0.045431 
1.476264 7.904497 0.180661 
1.409272 3.003535 7.396875 
PRIMCOORD
36 1
Li	     -0.00489      0.02158      0.02133         0.013061      0.007180      0.010094
Li	      4.34828      7.89982      0.30704         0.005400     -0.002539     -0.000839
Li	      5.72952      2.12626      5.14041        -0.004764     -0.002548      0.007947
Li	      5.77840      8.80981      2.62053        -0.008188     -0.007867     -0.009798
Li	      1.47169      0.96797      2.32292         0.008035     -0.000787      0.001647
Li	      5.77030      5.32173      0.11557         0.004898      0.002545     -0.003991
Li	      4.35703      6.07135      2.44332         0.001770     -0.001667     -0.000284
Li	      1.44761      4.68731      4.97718        -0.006892      0.004292      0.002859
Li	      2.91126      3.49508      2.38430         0.003915     -0.000320      0.003469
Sc	      4.36490      2.58941      0.07491         0.000343     -0.003965     -0.010926
Ti	      7.14922      6.31505      2.41255         0.012834      0.006609      0.001605
V	      2.78871      2.14362      4.86814         0.007864     -0.024629      0.009792
Cr	      2.91901      5.31152      0.16946        -0.001611      0.003828     -0.007512
Fe	      2.92755      7.28074      4.98853         0.003269     -0.006508      0.005513
Co	      4.43845      4.54880      4.82972         0.001331      0.001710      0.004349
Cu	      5.92142      7.45047      5.05386         0.002015      0.010102     -0.002325
Cu	      1.44219      2.62290      0.09700        -0.006709     -0.003960      0.004422
Ni	      5.85227      3.56619      2.46575        -0.006198      0.000101      0.001456
O	      5.65875      9.10037      6.30052        -0.005348     -0.003027     -0.000664
O	      2.98505      9.07888      6.19801         0.000064     -0.001819     -0.001803
O	      7.38191      7.82892      3.65876         0.000641     -0.001192     -0.004966
O	      4.42848      8.26797      4.07034        -0.002293      0.002775     -0.000122
O	      2.83863      6.91109      1.36585         0.001844     -0.001772      0.001375
O	      5.87373      7.06686      1.40177         0.005391      0.002613     -0.003068
O	      7.29973      6.51606      6.18845        -0.000461     -0.002142      0.001882
O	      4.21522      6.57979      6.39140         0.001992     -0.002380      0.003724
O	      3.08434      5.53746      3.97814        -0.002129      0.005866     -0.004815
O	      5.89745      5.28975      3.61302        -0.006870     -0.002181      0.001976
O	      4.34315      4.37543      1.23015         0.004790     -0.002702      0.004181
O	      1.50394      4.63788      1.46206        -0.001632     -0.003196      0.010078
O	      2.85962      3.54661      5.98199        -0.010634      0.004816     -0.000447
O	      5.66898      3.97921      6.08051        -0.006285      0.008390     -0.003859
O	      4.28073      2.80291      3.82822         0.004354      0.004491      0.000432
O	      1.51327      2.70975      3.78282        -0.013312      0.010732     -0.014016
O	      5.88439      1.88546      1.22188        -0.003309     -0.003721     -0.004562
O	      2.86786      1.78735      1.18291         0.002823      0.002873     -0.002803
