# total energy = -223.00683539 eV
 
CRYSTAL
PRIMVEC
5.894577 0.012243 -0.044336 
1.531366 7.722615 -0.056972 
1.441096 2.719754 7.239365 
PRIMCOORD
36 1
Li	      1.33534      2.68008      7.21928         0.006043      0.002273      0.000931
Li	      4.58993      7.70830     -0.02991        -0.009320     -0.005328     -0.005303
Li	      5.84452      1.87875      4.94643        -0.003704      0.012641      0.012572
Li	      4.37664      0.91020      2.29316        -0.003516      0.002160      0.005736
Li	      1.51061      0.81943      2.37643         0.001582     -0.007901     -0.016775
Li	      5.84827      5.17285     -0.06238         0.003748      0.002323      0.003769
Li	      4.44524      6.00367      2.31823        -0.006844     -0.007441     -0.006805
Li	      1.42870      4.39740      4.80095         0.009541      0.007616      0.001818
Li	      3.02140      3.48439      2.34015         0.000821     -0.009761     -0.000219
Sc	      1.47277      2.47153     -0.00248        -0.002548     -0.012018      0.012662
Ti	      7.30968      6.12677      2.21412         0.001183      0.001743     -0.008901
V	      2.90592      1.96678      4.71146         0.004029      0.010100      0.000090
Cr	      3.02051      5.20960     -0.01772        -0.003439      0.018107     -0.009511
Fe	      2.94824      6.97901      4.71947        -0.001465      0.016990      0.003710
Co	      5.94408      6.99388      4.75406         0.010635      0.015436     -0.002365
Cu	      4.42108      2.53460     -0.00773         0.001528     -0.001473     -0.002937
Cu	      4.48854      4.41144      4.72940         0.001605      0.000045      0.007578
Ni	      5.88779      3.46382      2.37964         0.000672     -0.006905      0.000570
O	      5.77211      8.74932      5.93869        -0.001595      0.001252      0.001931
O	      3.10942      8.72937      5.90144         0.002942     -0.000822     -0.003572
O	      7.44164      7.64716      3.45403         0.001319     -0.008295      0.000641
O	      4.42300      7.94732      3.72329         0.003966     -0.011779     -0.004893
O	      2.89663      6.75905      1.20815         0.001997      0.006214      0.011186
O	      6.00685      6.82529      1.18474        -0.004482     -0.019235      0.005998
O	      7.42841      6.21302      5.93577         0.002020      0.005191     -0.001663
O	      4.39714      6.28491      6.06910        -0.007810     -0.015100     -0.005367
O	      3.05120      5.30264      3.65684         0.007653     -0.000805      0.005211
O	      5.97281      5.20650      3.48563         0.000269     -0.000321     -0.002728
O	      4.43253      4.23072      1.08171         0.000981     -0.003623      0.012008
O	      1.54888      4.36095      1.20916        -0.002769      0.007672      0.003324
O	      2.91808      3.45582      5.92327        -0.007735     -0.001383     -0.006769
O	      5.80737      3.72945      5.98338        -0.003749     -0.009039     -0.024467
O	      4.30912      2.50640      3.68249        -0.010234      0.006950      0.014980
O	      1.55233      2.58216      3.71580        -0.004032      0.006634      0.007912
O	      5.89176      1.82092      1.18096         0.023316     -0.003551     -0.007793
O	      2.95594      1.72867      1.12540        -0.012610      0.001433     -0.002562
