# total energy = -226.23223719 eV
 
CRYSTAL
PRIMVEC
5.861623 0.002804 -0.030924 
1.511478 7.824269 0.081349 
1.445084 2.881487 7.296911 
PRIMCOORD
36 1
Li	      1.40455      2.81525      7.20831        -0.005634     -0.006137     -0.004594
Li	      4.47119      7.82253      0.15326        -0.008266      0.003602      0.011212
Li	      5.81531      2.01864      5.03319        -0.004404      0.001959      0.007715
Li	      5.85314      8.68978      2.59864         0.002390      0.003128     -0.002105
Li	      1.50366      0.95002      2.30533        -0.000896     -0.001618      0.005181
Li	      5.82511      5.29000      0.08456        -0.000777     -0.002968     -0.000323
Li	      4.40734      6.10462      2.40349        -0.001495     -0.003940     -0.002390
Li	      1.46164      4.50757      4.87383         0.003238      0.001247     -0.001531
Li	      2.95703      3.58716      2.39644        -0.003946     -0.005956     -0.000737
Sc	      4.42406      2.50162      0.03176        -0.005618      0.001827     -0.001425
Ti	      7.28287      6.28876      2.34447         0.004625     -0.010275      0.006652
V	      2.87263      2.05813      4.72938         0.005834     -0.000380      0.020129
Cr	      2.97036      5.25992      0.10153         0.002059     -0.007966     -0.017523
Fe	      2.93542      7.14713      4.84175         0.000751     -0.002365     -0.020219
Co	      4.44218      4.47969      4.78911        -0.006256      0.004330      0.005324
Co	      5.91243      7.14613      4.87948        -0.002335      0.007588     -0.001340
Cu	      1.47295      2.61382      0.05203         0.014978      0.002291      0.004996
Ni	      5.89096      3.58825      2.44635         0.000045      0.003954      0.001884
O	      5.75812      8.80043      6.05838        -0.001262     -0.008716      0.003119
O	      3.08189      8.88720      6.03584         0.001526      0.008781      0.007260
O	      7.39517      7.83255      3.61993        -0.001487      0.004076      0.002202
O	      4.41958      8.08145      3.85316         0.002482      0.001624     -0.004488
O	      2.89495      6.87464      1.26554        -0.002998      0.001916     -0.001667
O	      5.96345      7.03487      1.34543        -0.007766      0.001852     -0.011238
O	      7.43571      6.32987      6.14640        -0.008201     -0.002768     -0.001517
O	      4.28331      6.38880      6.24893         0.006458      0.005633      0.010592
O	      2.97385      5.47286      3.79006         0.008620      0.006386     -0.001175
O	      5.92875      5.40655      3.65842         0.002417     -0.004809      0.000942
O	      4.39383      4.35043      1.19876         0.000909     -0.000437      0.003448
O	      1.51213      4.59992      1.40340        -0.001424     -0.012217     -0.004548
O	      2.95248      3.39674      5.90511         0.006188     -0.003491     -0.014338
O	      5.81419      3.77888      6.07076         0.005138     -0.010249     -0.006636
O	      4.31078      2.62564      3.68534         0.012791      0.017132     -0.000505
O	      1.54458      2.68200      3.72535        -0.011553      0.003871     -0.005867
O	      6.01178      1.93653      1.19563        -0.002838      0.001720      0.013866
O	      2.81750      1.81706      1.11300        -0.003293      0.001376     -0.000356
