# total energy = -223.04606642 eV
 
CRYSTAL
PRIMVEC
5.910333 0.022444 -0.052416 
1.548810 7.713868 -0.062468 
1.440051 2.715349 7.207011 
PRIMCOORD
36 1
Li	      1.39326      2.75849      7.16912         0.001785     -0.004240     -0.002078
Li	      4.59595      7.74669      0.00464         0.002325     -0.007321     -0.007795
Li	      5.86067      1.81647      4.86530        -0.001556      0.002403      0.000614
Li	      4.40063      0.93520      2.37369         0.007867      0.006866     -0.002948
Li	      1.49911      0.87230      2.29640        -0.000968      0.002293     -0.009226
Li	      5.89725      5.16121     -0.06788        -0.001558     -0.003975      0.006276
Li	      4.46862      6.11404      2.30688        -0.006681      0.020140     -0.002056
Li	      1.47895      4.40059      4.84984        -0.003391     -0.002735      0.005941
Li	      3.00988      3.45815      2.29616        -0.005185     -0.003096      0.001525
Sc	      4.47914      4.35991      4.74342         0.006421     -0.006485      0.010881
Ti	      7.35639      6.13665      2.16857        -0.019953      0.007739     -0.015675
V	      2.82887      1.90496      4.70552        -0.000306      0.006874     -0.011137
Cr	      3.02547      5.15246     -0.03269        -0.001263     -0.001013      0.003891
Fe	      2.92732      6.98055      4.68846         0.003609     -0.010351      0.002874
Co	      1.47872      2.49616      0.01248         0.003739     -0.011496      0.008382
Cu	      4.46805      2.51546      0.02640         0.009072     -0.009965      0.009540
Cu	      5.96873      6.99091      4.70637         0.005566      0.002006      0.001756
Ni	      5.93217      3.46095      2.35366         0.001359     -0.000370     -0.005602
O	      5.78395      8.63019      5.86309         0.000138      0.003554      0.011270
O	      3.09179      8.66019      5.87967         0.000656     -0.005828     -0.000741
O	      7.44757      7.69624      3.44032        -0.006221     -0.001286      0.002937
O	      4.44645      7.85422      3.64639        -0.004543     -0.003634      0.001522
O	      2.92260      6.74338      1.15579        -0.003444      0.000956     -0.003887
O	      6.02110      6.85549      1.18946         0.018246     -0.016238      0.012787
O	      7.48424      6.17262      5.93562         0.009099      0.001516      0.006913
O	      4.37513      6.16772      6.00471         0.011431      0.009075     -0.006831
O	      2.98238      5.33541      3.59755        -0.002480      0.002940      0.001420
O	      5.98727      5.24584      3.49639         0.003689      0.004292     -0.004953
O	      4.44691      4.21443      1.05810        -0.006315     -0.002228     -0.005667
O	      1.54484      4.39585      1.21109         0.003766      0.007235     -0.004056
O	      2.97490      3.47494      5.90836        -0.004437      0.008225     -0.003032
O	      5.89643      3.67685      6.04026         0.003065      0.002487      0.001754
O	      4.39942      2.63132      3.64737        -0.002879     -0.003736      0.004698
O	      1.53889      2.57346      3.66093        -0.006933     -0.001714      0.003402
O	      5.95297      1.85850      1.13287        -0.005147      0.000930     -0.007671
O	      2.88656      1.81244      1.06109        -0.008573      0.006179     -0.005027
