# total energy = -222.75315307 eV
 
CRYSTAL
PRIMVEC
5.876164 0.025353 -0.055917 
1.544181 7.695023 -0.066459 
1.428638 2.706055 7.216812 
PRIMCOORD
36 1
Li	     -0.14314     -0.07213      0.02188         0.008863      0.005208      0.003096
Li	      4.57389      7.69900     -0.04949        -0.000804      0.008513      0.005521
Li	      5.83822      1.94775      4.90996        -0.004202     -0.001064      0.006148
Li	      4.35476      0.86931      2.27720        -0.005883      0.001697      0.003878
Li	      1.52608      0.82582      2.34600        -0.010302      0.004786     -0.000168
Li	      5.82826      5.16685     -0.09892         0.001793      0.005253     -0.002541
Li	      4.43515      5.98016      2.31576        -0.004325     -0.019599     -0.005280
Li	      1.41584      4.40066      4.79023         0.009711     -0.004848     -0.009147
Li	      3.03384      3.47906      2.36761        -0.002449     -0.015773     -0.004606
Sc	      1.44414      2.47665      0.01200         0.002256      0.007515      0.003066
Ti	      7.27867      6.06908      2.20069        -0.008333      0.004116     -0.013462
V	      2.87277      1.95687      4.72875        -0.009713      0.017285      0.009302
Cr	      3.01785      5.15582     -0.04261         0.020648      0.011035     -0.000138
Fe	      2.96490      6.96918      4.66790        -0.003545     -0.001032     -0.007119
Co	      4.44692      4.40720      4.75520        -0.015436     -0.017332      0.007616
Cu	      4.39546      2.50013      0.00240         0.002217      0.007234      0.003486
Cu	      5.96774      7.03410      4.70766        -0.002093      0.001512      0.011039
Ni	      5.85403      3.42130      2.39341         0.005502     -0.003051      0.001095
O	      5.75340      8.73762      5.92013        -0.000854      0.004977      0.012823
O	      3.08501      8.66860      5.88335        -0.000010      0.002930      0.004091
O	      7.45022      7.64184      3.38350        -0.012832     -0.014564      0.000665
O	      4.51083      7.87425      3.66431        -0.003308      0.005521     -0.004096
O	      2.87072      6.69359      1.17147         0.006948     -0.004406     -0.002498
O	      5.98248      6.77983      1.17710         0.000566     -0.005104      0.000481
O	      7.38125      6.24239      5.85706         0.004194     -0.002334      0.001356
O	      4.39492      6.11694      5.93919         0.005261      0.010952     -0.013488
O	      3.04206      5.27069      3.63755        -0.001465      0.006623     -0.004809
O	      5.89643      5.15979      3.50614         0.000742     -0.017417     -0.008552
O	      4.41923      4.20920      1.05124        -0.000132     -0.005458     -0.009075
O	      1.54827      4.32749      1.18665        -0.001810      0.006128     -0.000201
O	      3.02475      3.59256      5.85644        -0.002727     -0.004229     -0.000901
O	      5.77936      3.71146      5.94019         0.002716      0.000114     -0.001932
O	      4.39184      2.78269      3.74843         0.004937      0.006357     -0.002534
O	      1.54695      2.56558      3.68447         0.012983     -0.000712      0.004515
O	      5.86169      1.77845      1.15386        -0.000282     -0.007963      0.008825
O	      2.92452      1.71509      1.14360         0.001169      0.007130      0.003545
