# total energy = -222.89804529 eV
 
CRYSTAL
PRIMVEC
5.927054 0.019445 -0.053027 
1.549370 7.764902 0.037147 
1.441337 2.825909 7.250569 
PRIMCOORD
36 1
Li	      1.39353      2.89810      7.23472         0.010713     -0.001872      0.002694
Li	      3.02318      0.03745      0.00187         0.006188     -0.004525     -0.000652
Li	      5.89056      2.04222      5.00662        -0.001394     -0.003233      0.011773
Li	      5.89904      8.65260      2.40758        -0.015707      0.003499      0.009582
Li	      1.51646      0.91664      2.28313        -0.005932      0.004370     -0.001361
Li	      5.88651      5.20389      0.06581        -0.001630     -0.008689      0.002072
Li	      4.45626      6.03028      2.35411         0.005716     -0.015324      0.008543
Li	      1.48696      4.44857      4.87174        -0.007870      0.007531      0.010359
Li	      3.01532      3.50068      2.33192        -0.003773     -0.006854     -0.005990
Sc	      5.96519      7.01473      4.87777         0.016542     -0.009357     -0.000745
Ti	      7.39769      6.19773      2.23718        -0.004805     -0.009100     -0.004939
V	      2.90348      2.05680      4.69893        -0.018004      0.005608      0.016205
Cr	      3.02979      5.22223      0.05742        -0.019228      0.011947     -0.015273
Fe	      2.97625      7.07743      4.77679         0.008944      0.013413     -0.013446
Co	      1.49775      2.60834      0.03074         0.022278     -0.006719     -0.001062
Cu	      4.43735      2.42585      0.12582        -0.007928     -0.008015      0.019318
Cu	      4.49661      4.47013      4.77936         0.014509      0.005339      0.011418
Ni	      5.93254      3.51349      2.39223         0.000901     -0.003482      0.002589
O	      5.83471      8.79054      6.01704        -0.010592     -0.001758     -0.005979
O	      3.15927      8.86409      5.95138         0.023165     -0.003467     -0.000967
O	      7.41948      7.71647      3.56306        -0.005558     -0.001405      0.009580
O	      4.46330      7.98938      3.76922        -0.001842      0.009668      0.012185
O	      2.92586      6.82547      1.25181         0.014170      0.005944      0.000511
O	      6.05540      6.93940      1.27165        -0.010525     -0.006163     -0.003000
O	      7.55977      6.32185      6.03938         0.011067      0.000714     -0.012225
O	      4.32007      6.40424      6.15450        -0.001264      0.020664     -0.009966
O	      3.03981      5.40166      3.70843        -0.002719      0.007515     -0.017544
O	      5.98651      5.29840      3.58701         0.006867      0.011645     -0.012875
O	      4.44182      4.24915      1.14777         0.004687     -0.001894      0.005363
O	      1.54134      4.48976      1.30735        -0.006977     -0.017238     -0.000783
O	      2.99843      3.47993      5.84613        -0.011668      0.000874      0.016147
O	      5.85317      3.80719      6.02522        -0.008546      0.000315      0.006418
O	      4.32276      2.50330      3.62637         0.008459     -0.016643     -0.021592
O	      1.55353      2.65314      3.70680         0.002882      0.004423      0.000576
O	      6.11001      1.92078      1.11243        -0.007155      0.005057     -0.018709
O	      2.78503      1.82136      1.05619        -0.003972      0.007213      0.001776
