# total energy = -223.57501664 eV
 
CRYSTAL
PRIMVEC
5.815238 -0.008255 -0.017816 
1.486118 7.907347 0.170081 
1.444874 2.989403 7.340588 
PRIMCOORD
36 1
Li	      1.42354      2.92520      7.22715        -0.002150      0.005361      0.008003
Li	      4.40215      7.93250      0.24055         0.000417     -0.005480     -0.003598
Li	      5.78749      2.11937      5.09850        -0.003038      0.001889     -0.000282
Li	      5.79528      8.78017      2.67095        -0.001831      0.001824      0.002114
Li	      1.47676      0.98431      2.33979        -0.002355     -0.005993      0.009152
Li	      5.76516      5.33608      0.14825         0.007485      0.002343     -0.004122
Li	      4.35771      6.13800      2.48496        -0.003716     -0.004141     -0.002944
Li	      1.48951      4.58936      4.92272        -0.002873      0.003434      0.001392
Li	      2.91967      3.59486      2.42220         0.001456     -0.015350     -0.003392
Sc	      4.37198      2.55035      0.07390         0.008494      0.016113     -0.007745
Ti	      7.21047      6.36543      2.41426         0.002296     -0.000060      0.009865
V	      2.89487      2.10144      4.72337        -0.001628     -0.012872     -0.001145
Cr	      2.93143      5.33100      0.17206        -0.005254      0.003591     -0.008729
Fe	      2.91297      7.27199      4.95397         0.005795     -0.003770     -0.024520
Co	      5.85499      7.27973      4.99531         0.001306      0.010673      0.000445
Cu	      4.42701      4.61120      4.88501        -0.010618      0.005480      0.006700
Cu	      1.44585      2.65686      0.10550        -0.006061     -0.001982     -0.008140
Ni	      5.81917      3.61503      2.52010         0.001567     -0.010805      0.005252
O	      5.71564      8.97546      6.16660        -0.003222      0.003688      0.008743
O	      3.05286      9.08404      6.15636        -0.000511      0.001785      0.004092
O	      7.33455      7.87591      3.70192        -0.007160      0.002774     -0.000634
O	      4.36568      8.20786      3.96233        -0.001879      0.003269      0.002330
O	      2.85361      6.96187      1.34193         0.009488     -0.004162     -0.010120
O	      5.89244      7.09387      1.42143        -0.003871      0.006419      0.005386
O	      7.36816      6.48582      6.24847        -0.006244      0.001304      0.002074
O	      4.24748      6.61662      6.39968         0.008841     -0.003407      0.001005
O	      3.00514      5.57389      3.91048         0.003424      0.001871      0.010337
O	      5.84405      5.45004      3.77145        -0.002763     -0.000668      0.005607
O	      4.34684      4.39588      1.26696        -0.002394     -0.003150     -0.007398
O	      1.48827      4.67185      1.49895         0.002202     -0.004380     -0.001951
O	      3.01972      3.52761      5.87294         0.010045      0.009756     -0.005977
O	      5.78174      3.91560      6.10790        -0.002272     -0.007761     -0.008524
O	      4.28748      2.58065      3.65913         0.007877      0.008269      0.000377
O	      1.53754      2.74040      3.75418        -0.005936     -0.004540      0.002057
O	      5.92548      1.94555      1.24611         0.011001     -0.002119      0.004700
O	      2.79596      1.82509      1.14360        -0.005920      0.000796      0.009587
