# total energy = -223.20989559 eV
 
CRYSTAL
PRIMVEC
5.875293 -0.002025 -0.040686 
1.508673 7.810051 0.079615 
1.434679 2.876173 7.290643 
PRIMCOORD
36 1
Li	      1.35703      2.95201      7.27956         0.001843      0.002354      0.008869
Li	      2.99831      0.02453      0.07309        -0.001178      0.004564      0.006237
Li	      5.83202      2.03924      5.04009         0.000458      0.013105      0.011007
Li	      4.35216      0.95619      2.30689        -0.007543     -0.007390      0.008101
Li	      1.49943      0.92300      2.33971         0.004168      0.008103      0.002338
Li	      5.85260      5.23406      0.08980         0.002229      0.003630     -0.003607
Li	      4.41733      6.08179      2.38771         0.004123     -0.008619     -0.006268
Li	      1.44987      4.51066      4.91897         0.001660      0.001183     -0.001927
Li	      2.97968      3.49348      2.33520        -0.001042     -0.008602     -0.003544
Sc	      5.91581      7.11259      4.87529        -0.003272     -0.003103      0.007632
Ti	      7.32357      6.22134      2.28882        -0.018324      0.003329     -0.011381
V	      2.86114      2.07834      4.73777         0.014571      0.017389      0.006582
Cr	      2.98801      5.23663      0.08583         0.011106      0.003302     -0.000520
Fe	      2.94088      7.11135      4.84913         0.009007      0.011672     -0.015727
Co	      4.43893      4.48507      4.85400        -0.005073     -0.008819     -0.003359
Cu	      4.40977      2.53146      0.05990        -0.009502     -0.012331      0.012571
Cu	      1.45773      2.56566      0.07015         0.009243      0.014376     -0.014699
Ni	      5.87313      3.55196      2.42847        -0.001362     -0.003032      0.001212
O	      5.76516      8.85157      6.06217        -0.006932     -0.012153      0.003869
O	      3.08736      8.85911      6.01486         0.002617     -0.004215     -0.004409
O	      7.38485      7.78471      3.61250         0.012363     -0.007350      0.015620
O	      4.40082      8.06123      3.81691        -0.011527      0.001461      0.017587
O	      2.90692      6.86022      1.26533        -0.000218     -0.010960     -0.002033
O	      5.98614      6.96199      1.32067         0.004739     -0.011964     -0.002251
O	      7.41368      6.32779      6.11096        -0.005765      0.010012     -0.021125
O	      4.36695      6.38657      6.19842         0.006765      0.014198     -0.015337
O	      2.98914      5.45770      3.78459        -0.007019      0.010535     -0.004508
O	      5.92975      5.36025      3.62876         0.007448      0.002330      0.001321
O	      4.40571      4.31411      1.18105         0.002454     -0.013128     -0.005506
O	      1.53234      4.55629      1.38092        -0.005429      0.000003      0.005742
O	      2.90326      3.42959      5.89951         0.000874     -0.008079     -0.007382
O	      5.78110      3.81606      6.09325         0.006336      0.000891      0.003487
O	      4.30022      2.63173      3.71425        -0.008873      0.004316      0.000718
O	      1.52142      2.66376      3.71650        -0.006434      0.007606     -0.006369
O	      5.88688      1.90117      1.19426        -0.021766     -0.004136      0.007774
O	      2.89348      1.80091      1.11718         0.019257     -0.010477      0.009283
