# total energy = -223.64570909 eV
 
CRYSTAL
PRIMVEC
5.872925 -0.027876 -0.007421 
1.473683 7.790558 0.065564 
1.462181 2.842482 7.288237 
PRIMCOORD
36 1
Li	     -0.04564      0.09936      0.01452        -0.003281     -0.000657     -0.000751
Li	      4.48742      7.78474      0.19447         0.000152     -0.003486      0.000102
Li	      5.81414      1.78318      4.94408         0.000233      0.005810     -0.004451
Li	      4.43017      0.91947      2.38460        -0.000369     -0.004442      0.004539
Li	      1.50649      0.94257      2.29425        -0.000970      0.003773     -0.010649
Li	      5.81341      5.19005      0.07641        -0.007187      0.001908      0.000684
Li	      4.40943      6.19268      2.44677        -0.000547     -0.000588     -0.005705
Li	      1.44922      4.52388      4.93605        -0.006945      0.008378      0.002290
Li	      2.95075      3.45068      2.30954         0.001640     -0.006755     -0.002378
Sc	      4.45428      4.49171      4.86629         0.023612     -0.002482     -0.004449
Ti	      7.28269      6.21110      2.34752        -0.006399     -0.013151     -0.017055
V	      2.84282      1.97052      4.75120         0.012103      0.006939     -0.002966
Cr	      2.95305      5.18126      0.07538         0.014995      0.004678     -0.005418
Fe	      2.86643      7.10202      4.84865         0.007146      0.003329      0.022843
Co	      4.42018      2.51813      0.09096         0.006446     -0.001278     -0.004414
Cu	      5.92756      7.12261      4.90266         0.007085      0.007411     -0.006326
Cu	      1.43825      2.56516      0.06294        -0.009979      0.009794     -0.021129
Ni	      5.90341      3.48751      2.41203        -0.008227      0.002595      0.007283
O	      5.73603      8.78640      6.08650        -0.012041      0.015363      0.001996
O	      3.04834      8.81235      6.02635         0.004280      0.008003     -0.007887
O	      7.42692      7.77957      3.58647        -0.007628      0.017193      0.013924
O	      4.41350      8.03572      3.85877         0.008245     -0.021730      0.001436
O	      2.89834      6.80251      1.25445        -0.002748     -0.001788     -0.006379
O	      5.94755      6.93421      1.35808         0.002621     -0.004621     -0.000134
O	      7.33569      6.24129      6.16051        -0.006949      0.002245      0.003957
O	      4.21950      6.28167      6.17420        -0.005722     -0.012949      0.003822
O	      2.94522      5.45107      3.77389         0.002551      0.002999     -0.001588
O	      5.91065      5.22971      3.59903        -0.005573     -0.005964     -0.006993
O	      4.37936      4.18281      1.10745        -0.013125     -0.008721      0.009007
O	      1.51735      4.54806      1.38655         0.014020      0.005856     -0.007336
O	      2.94673      3.36721      5.89557        -0.008761      0.001172      0.007162
O	      5.86004      3.85271      6.20303         0.001060      0.008240      0.005085
O	      4.33321      2.66547      3.76770        -0.012825      0.003285      0.009534
O	      1.54607      2.61275      3.72672         0.016462     -0.009085      0.011607
O	      5.97381      1.85033      1.23524         0.000617     -0.010152      0.001887
O	      2.94549      1.82787      1.08386        -0.003991     -0.011121      0.008849
