# total energy = -89.93718248 eV
 
CRYSTAL
PRIMVEC
-0.016716 2.210093 2.047197 
2.048257 -2.210932 -0.018599 
10.457509 13.405484 0.029891 
PRIMCOORD
16 1
Li	      2.04664      2.14559      0.00476        -0.007743     -0.007259      0.007245
Li	      4.25400      7.00211     -2.19801         0.007815      0.028956     -0.015406
Li	      6.25646      6.65016     -4.21628        -0.246980     -0.262934      0.253469
Li	     10.34898     10.98166     -8.35349         0.011395     -0.013085     -0.001825
Mn	     10.43522     15.53113     -8.39282        -0.017138     -0.007816      0.019097
Mn	      4.13474      2.19716     -2.07040         0.001684     -0.009715     -0.011043
Ni	      8.33170      6.75277     -6.31853         0.063893      0.031461     -0.058356
Ni	      8.36741     11.22139     -6.36339         0.428832      0.338130     -0.424310
O	     10.53585     13.32843     -8.49447         0.052449      0.038431     -0.051049
O	      8.29395      9.07379     -6.28409        -0.324603     -0.571627      0.324839
O	     10.36490      8.83904     -8.36443         0.131922      0.058528     -0.113671
O	      6.39297      9.13176     -4.37736        -0.262538      0.219298      0.248284
O	      4.02253      4.32262     -1.95866        -0.005282     -0.000402      0.010019
O	      6.25338      4.56736     -4.20457         0.153766      0.146271     -0.159215
O	      1.96260     -0.02014      0.07841         0.001146     -0.001550     -0.007680
O	      2.14524      4.38714     -0.08047         0.011383      0.013312     -0.020400
