# total energy = -232.86941140 eV
 
CRYSTAL
PRIMVEC
6.153491 0.067613 -0.090110 
1.591332 7.640496 -0.123090 
1.511375 2.467598 7.210937 
PRIMCOORD
36 1
Li	      3.22687      5.14747      7.01149         0.004298      0.005519      0.008222
Li	      3.13014      5.02816     -0.11367         0.002422     -0.002430     -0.014813
Li	      3.16151      8.42424      2.37589        -0.001365      0.007834     -0.003487
Li	      1.76232      5.93091      2.32382         0.003334      0.002973     -0.019926
Li	      4.57889      5.90343      2.39423        -0.016127      0.002659     -0.002373
Li	      4.59825      9.23725      4.61125        -0.011286      0.018906     -0.013892
Li	      1.57042      4.35045      4.64612         0.010432      0.001416      0.001030
Li	      6.03382      6.73691      4.67235        -0.009309     -0.003493     -0.003785
Li	      3.34063      6.73106      4.63360         0.003164      0.002519     -0.009032
Sc	      0.06773      0.13552      0.02319        -0.008329     -0.015087      0.014967
Sc	      4.60179      7.65061     -0.10229         0.007428     -0.013260      0.005070
Ti	      6.28555      4.95463     -0.16462         0.007931     -0.018915      0.002841
V	      7.74846      9.22233      4.54445        -0.011892      0.004240      0.024829
Cr	      4.56274      4.24419      4.69426        -0.010358      0.005062      0.011396
Fe	      6.04009      8.43630      2.33412         0.004162     -0.005151     -0.015131
Co	      6.16405      3.44293      2.30924         0.009931     -0.000732     -0.000427
Cu	      3.00861      3.42861      2.30871        -0.004013      0.001189     -0.008418
Ni	      6.10478      5.13138      7.07560         0.004828     -0.000494     -0.000410
O	      3.14923      1.80234      1.20209         0.015703     -0.007715      0.005532
O	      5.97162      1.82674      1.20555        -0.000941     -0.004112      0.012941
O	      1.54713      4.28891      1.07811         0.004386      0.002778      0.002983
O	      4.88724      4.35886      1.02564        -0.007348      0.003713      0.015300
O	      6.26964      6.92618      0.98818        -0.005217      0.011793     -0.008348
O	      3.09491      6.87167      0.97888         0.017032      0.010953     -0.010571
O	      1.21234      2.47498      3.63159        -0.006999     -0.014935      0.008946
O	      4.58735      2.48593      3.62717         0.013865     -0.008746      0.004313
O	      6.00716      4.89642      3.48047        -0.001806      0.004641     -0.007248
O	      3.11700      4.93820      3.49396         0.010139     -0.001845      0.008682
O	      4.69901      7.67007      3.41234        -0.005631      0.013153     -0.001495
O	      7.64821      7.78090      3.48008        -0.000248     -0.001616     -0.006014
O	      6.03226      3.30262      5.87615        -0.000328     -0.009873      0.004255
O	      3.10469      3.34680      5.98665        -0.007772     -0.002496     -0.002928
O	      4.66622      5.84528      5.84613        -0.001385     -0.001369      0.001478
O	      7.71304      5.98563      5.94849        -0.003776     -0.001200      0.006993
O	      2.94094      8.47882      5.89089        -0.013597      0.012314     -0.013474
O	      6.41796      8.45802      5.90719         0.008671      0.001806      0.001996
