# total energy = -223.42383726 eV
 
CRYSTAL
PRIMVEC
5.887928 -0.006813 -0.024264 
1.505172 7.794399 0.048199 
1.455496 2.835954 7.277661 
PRIMCOORD
36 1
Li	      1.39234      2.89039      7.25923        -0.000768     -0.001639      0.000896
Li	      4.52479      7.79307      0.15437        -0.000240      0.000983      0.001252
Li	      5.82557      1.87151      5.00515         0.005807      0.014136      0.014334
Li	      5.89511      8.70135      2.45153         0.008255     -0.003882      0.001242
Li	      1.51831      0.91637      2.29786         0.003839     -0.000735      0.003214
Li	      5.83461      5.18330      0.05418         0.003804      0.002262      0.001908
Li	      4.43039      6.12387      2.37754         0.002722     -0.005162     -0.007533
Li	      1.46571      4.53089      4.93390         0.001178     -0.000268      0.002535
Li	      2.96925      3.46685      2.29630        -0.004030     -0.006613     -0.002642
Sc	      4.47879      4.47982      4.85600        -0.000545      0.002989     -0.000971
Ti	      7.32208      6.22973      2.30593        -0.009209     -0.005698     -0.016680
V	      2.84013      1.98136      4.73484        -0.002040     -0.001600      0.007930
Cr	      2.98953      5.19594      0.05975        -0.003389      0.001273      0.001555
Fe	      2.90381      7.11149      4.81000        -0.008795      0.005941     -0.002052
Co	      5.94163      7.11208      4.86845        -0.007796      0.004840      0.000277
Cu	      4.44977      2.51050      0.10259        -0.006337      0.003052     -0.000283
Cu	      1.43450      2.58111      0.05108        -0.001324      0.006071     -0.006420
Ni	      5.91986      3.52855      2.40483         0.002443      0.001874     -0.002635
O	      5.77378      8.78353      6.04095         0.005173      0.007356      0.002289
O	      3.09910      8.83036      5.99196        -0.003087     -0.004024      0.007198
O	      7.41325      7.79203      3.58050         0.003071      0.001009     -0.006545
O	      4.43494      8.04992      3.80943         0.004767     -0.003217     -0.002975
O	      2.90616      6.82365      1.23231         0.000370     -0.002868      0.003174
O	      5.97954      6.95590      1.32976         0.004502     -0.008240      0.001385
O	      7.44965      6.29786      6.09075         0.009498     -0.005193      0.002414
O	      4.32079      6.29627      6.14336        -0.003442     -0.001321      0.002285
O	      2.97654      5.45901      3.73715         0.004463      0.003539      0.005175
O	      5.94646      5.29519      3.61190        -0.005324     -0.012468      0.001753
O	      4.41056      4.26045      1.15694         0.005278      0.000240      0.002053
O	      1.53043      4.55112      1.36809        -0.001461     -0.004525      0.001238
O	      2.95428      3.38120      5.87393        -0.000718      0.008014      0.002939
O	      5.88229      3.77196      6.12718        -0.002168     -0.004679     -0.017958
O	      4.33236      2.67138      3.74061         0.009808      0.009697     -0.001833
O	      1.54571      2.61935      3.70853        -0.009520      0.004549     -0.007149
O	      5.96759      1.89156      1.19956        -0.008064      0.000040      0.007276
O	      2.85498      1.82188      1.07093         0.003278     -0.005735      0.001355
