# total energy = -223.32915942 eV
 
CRYSTAL
PRIMVEC
5.865397 0.024894 -0.072345 
1.540956 7.821432 0.068065 
1.405514 2.881231 7.280425 
PRIMCOORD
36 1
Li	      1.37335      2.81681      7.18049        -0.010337     -0.000877      0.002412
Li	      4.49301      7.84731      0.10437         0.007249      0.004731      0.007547
Li	      5.80674      2.05038      4.97886         0.001298      0.003077      0.003255
Li	      5.86800      8.70467      2.50855         0.008682      0.002807     -0.006258
Li	      1.47431      0.92560      2.26877         0.002639     -0.002979      0.003585
Li	      5.82495      5.29627      0.04321        -0.004467      0.000340     -0.001511
Li	      4.42705      6.09894      2.38353        -0.010085      0.000081     -0.003003
Li	      1.46856      4.52850      4.87444        -0.005525      0.001890     -0.003510
Li	      2.97380      3.60272      2.40525        -0.005506      0.003787     -0.002209
Sc	      4.40257      2.53649     -0.01789         0.007829      0.015816      0.015471
Ti	      7.30811      6.31073      2.28314        -0.013011     -0.007633     -0.002340
V	      2.87831      2.07215      4.69529        -0.004076     -0.001413     -0.015116
Cr	      2.97701      5.26571      0.07611         0.003028     -0.014352     -0.005392
Fe	      2.93945      7.14417      4.83632        -0.003117      0.002995     -0.005746
Co	      1.44959      2.68712      0.14403        -0.007705     -0.008401      0.000259
Cu	      4.46228      4.55453      4.76476         0.001506     -0.001197     -0.007316
Cu	      5.92574      7.19439      4.83120        -0.003040      0.000660     -0.002934
Ni	      5.84999      3.57557      2.44027         0.013355      0.002850     -0.007215
O	      5.75107      8.81383      6.00699         0.007279      0.003175      0.006863
O	      3.07641      8.92206      5.99491         0.000296      0.004574     -0.001317
O	      7.48623      7.82895      3.48143        -0.002217     -0.005718      0.005347
O	      4.44677      8.05023      3.84836         0.001585      0.006526     -0.003603
O	      2.90242      6.87211      1.23898         0.003574      0.009675     -0.003601
O	      5.98349      7.01660      1.27413        -0.005132      0.000438      0.004967
O	      7.39275      6.36309      6.08630         0.005006     -0.005537      0.007892
O	      4.17756      6.42562      6.31880         0.010092      0.004151     -0.006380
O	      3.00956      5.45555      3.76749         0.002806      0.004736     -0.002102
O	      5.92909      5.41423      3.62207         0.002564     -0.000303      0.005414
O	      4.39631      4.35870      1.18311        -0.003959      0.000854     -0.000470
O	      1.50708      4.53172      1.35028         0.002025     -0.002462     -0.004156
O	      2.97120      3.45570      5.85889         0.004292      0.007565      0.012011
O	      5.79276      3.81035      5.98294         0.007163     -0.005807      0.006711
O	      4.28280      2.54315      3.62283        -0.001024     -0.010569      0.001911
O	      1.53586      2.67775      3.69896         0.009968     -0.004769      0.014783
O	      5.96924      1.94174      1.15863        -0.005827     -0.002393     -0.007557
O	      2.81546      1.80628      1.08208        -0.017210     -0.006319     -0.006695
