# total energy = -222.98785539 eV
 
CRYSTAL
PRIMVEC
5.897560 0.007856 -0.042247 
1.526970 7.696596 -0.077254 
1.442745 2.690449 7.218725 
PRIMCOORD
36 1
Li	     -0.09487     -0.03343      0.01293         0.002653     -0.006004      0.007526
Li	      4.58479      7.69654     -0.02109        -0.004308     -0.002311     -0.000699
Li	      5.85377      1.84710      4.87814         0.010489      0.020521      0.007991
Li	      4.41294      0.91460      2.29019         0.003231     -0.006538      0.000816
Li	      1.50427      0.83774      2.34430         0.007703      0.001868     -0.006780
Li	      5.85396      5.16428     -0.09661        -0.000263      0.002441      0.009509
Li	      4.44974      6.05548      2.35052        -0.001913      0.008097     -0.000565
Li	      1.43106      4.38066      4.77502        -0.000018     -0.002335     -0.003259
Li	      3.03516      3.44916      2.35234        -0.000166     -0.010483     -0.002968
Sc	      1.45821      2.45362      0.01072        -0.010030     -0.003050      0.026687
Ti	      7.31082      6.08251      2.19388         0.003325      0.008147     -0.014766
V	      2.87930      1.91733      4.72034        -0.024869      0.008072     -0.010696
Cr	      3.00746      5.15993     -0.04451         0.005425     -0.000858      0.015345
Fe	      2.93265      6.94300      4.68277        -0.005090      0.018691     -0.003156
Co	      4.43075      2.51611     -0.02072         0.004750      0.015374      0.016213
Cu	      4.45937      4.36473      4.73571         0.005631     -0.022911     -0.008151
Cu	      5.93862      6.97814      4.70653        -0.014220     -0.005076     -0.007753
Ni	      5.89367      3.41241      2.39304        -0.010001     -0.006902      0.004667
O	      5.75550      8.66788      5.90390         0.004867      0.019415      0.000584
O	      3.07056      8.64841      5.88378        -0.002866      0.017631     -0.003118
O	      7.46407      7.62846      3.41491         0.003325     -0.000190     -0.006211
O	      4.47186      7.82846      3.66681         0.012132      0.002541     -0.002353
O	      2.90355      6.70999      1.17301        -0.005696      0.008024      0.007690
O	      6.00518      6.78819      1.16677         0.001074     -0.009966      0.003248
O	      7.32397      6.15617      5.91074         0.010760     -0.004005      0.004997
O	      4.31405      6.20695      5.99529         0.005107     -0.011948      0.001236
O	      3.00703      5.28285      3.63148         0.000416     -0.012284     -0.008328
O	      5.95354      5.16855      3.46359        -0.001429     -0.004802      0.003946
O	      4.42951      4.14469      1.00382        -0.001454     -0.012788     -0.004704
O	      1.54482      4.33904      1.19443        -0.001405     -0.008947     -0.002461
O	      2.96976      3.48656      5.91623         0.006272      0.000825     -0.006396
O	      5.84576      3.74429      6.03088        -0.005523     -0.005101     -0.010072
O	      4.38077      2.61668      3.70232        -0.004702      0.000448      0.007413
O	      1.55166      2.55327      3.69347         0.012652      0.004381      0.005688
O	      5.93464      1.77311      1.19807         0.005389      0.005500     -0.016716
O	      3.01209      1.75632      1.09245        -0.011247     -0.005477     -0.004401
