# total energy = -232.53589768 eV
 
CRYSTAL
PRIMVEC
6.011803 -0.012626 0.021978 
1.455401 7.705641 0.050063 
1.574242 2.612313 7.234165 
PRIMCOORD
36 1
Li	      3.13662      5.27003      7.14405        -0.002078     -0.008994     -0.004551
Li	      4.55725      7.68276      7.11430        -0.008804     -0.011323     -0.001380
Li	      3.08616      8.49525      2.58471        -0.006313      0.002599      0.000080
Li	      7.50612      5.98159      2.53979         0.001889     -0.005766     -0.014377
Li	      4.50081      6.04696      2.59365         0.008614      0.003197      0.000890
Li	      4.51826      9.27579      4.87406         0.016603     -0.008537      0.001871
Li	      7.53423      4.45850      4.79658        -0.001229      0.004900      0.002697
Li	      5.89367      6.86156      4.79376         0.003094     -0.012258      0.008435
Li	      3.21357      6.81889      4.80000        -0.000878     -0.009213     -0.005914
Sc	      0.05467      0.09797      0.06630        -0.001376      0.000525      0.003399
Sc	      4.42399      7.70529      0.19120         0.002695     -0.010706      0.000806
Ti	      5.99984      4.97882      0.03983         0.000250      0.018738      0.003369
V	      7.55040      9.32765      4.78219        -0.004553      0.015945      0.012080
Cr	      4.54836      4.37301      4.84191        -0.003834     -0.005029     -0.006202
Fe	      2.90266      3.48258      2.43887         0.005069     -0.006847      0.005032
Co	      5.99176      3.45251      2.45939         0.015291     -0.010207     -0.014172
Cu	      5.90444      8.51261      2.51789         0.008294      0.012298     -0.000829
Ni	      6.03160      5.21980      7.22715         0.004493      0.008222     -0.000519
O	      3.01800      1.80383      1.29117         0.009029      0.000745      0.010995
O	      5.83847      1.76455      1.32348         0.000087      0.006819      0.000635
O	      1.38730      4.23730      1.27061         0.005955     -0.000887      0.008015
O	      4.58292      4.23724      1.27881        -0.001429     -0.011632      0.003075
O	      6.00799      6.71740      1.14155         0.002310      0.002648      0.003898
O	      2.92335      6.88211      1.20147        -0.006138      0.006874      0.003421
O	      1.35836      2.63978      3.54246         0.005117      0.002759     -0.002285
O	      4.65559      2.72972      3.67510        -0.021557      0.008274     -0.009419
O	      5.97753      5.00086      3.59858        -0.002800      0.004522      0.004039
O	      3.06729      5.00158      3.62528         0.001962      0.005641      0.005437
O	      4.57038      7.77461      3.64376        -0.015555     -0.008473      0.016296
O	      7.48360      7.88650      3.77461        -0.010034      0.000922     -0.015368
O	      6.03278      3.39717      5.99065        -0.003235     -0.007730     -0.004538
O	      3.13211      3.44291      6.07329        -0.002990      0.008173      0.005800
O	      4.59435      5.97185      6.01394        -0.001715     -0.007910     -0.011191
O	      7.57628      6.13052      6.16910        -0.003977      0.007848     -0.013505
O	      2.88663      8.64058      6.06465         0.008345      0.003133      0.003077
O	      6.21544      8.60079      6.13872        -0.000604      0.000732      0.000902
