# total energy = -232.84539429 eV
 
CRYSTAL
PRIMVEC
6.117358 0.071030 -0.090136 
1.587968 7.637323 -0.126422 
1.502865 2.463929 7.245812 
PRIMCOORD
36 1
Li	      3.22396      5.12346      7.07484         0.002043      0.004181      0.004098
Li	      3.13521      5.04330     -0.12244         0.005937     -0.000924     -0.010222
Li	      3.12925      8.40936      2.37579        -0.000694      0.005933     -0.000019
Li	      1.71966      5.87463      2.39923         0.006337     -0.000926     -0.008485
Li	      4.49231      5.90086      2.38723        -0.008160     -0.001723     -0.004152
Li	      4.60431      9.19482      4.68993        -0.014320      0.010935     -0.004216
Li	      1.56022      4.36439      4.66921         0.000898      0.003600     -0.010191
Li	      5.97592      6.72176      4.71354        -0.008984      0.001302     -0.006195
Li	      3.30114      6.74932      4.67696         0.006617     -0.001146     -0.008726
Sc	      0.11087      0.13366      0.01360        -0.013372      0.010946      0.006829
Sc	      5.98019      8.42668      2.32797        -0.000780     -0.016255      0.001306
Ti	      6.24358      4.97573     -0.15951        -0.003997     -0.006506      0.003578
V	      7.72504      9.23283      4.57485        -0.003753     -0.004473     -0.015287
Cr	      4.54427      4.24440      4.71908         0.004298      0.001566     -0.003570
Fe	      4.58426      7.64158     -0.15049         0.012049      0.005792      0.002371
Co	      6.13448      3.44803      2.31260        -0.002989      0.005184      0.012417
Cu	      2.96456      3.42263      2.30240         0.010294      0.001461     -0.007009
Ni	      6.07545      5.12425      7.10044        -0.002470     -0.002251     -0.001389
O	      3.10371      1.79695      1.14539         0.005755      0.008802     -0.000046
O	      6.00539      1.83910      1.17438        -0.000469     -0.006479      0.001360
O	      1.54251      4.32062      1.08518        -0.002108      0.000578      0.003949
O	      4.85349      4.35006      1.03005         0.003161      0.006030     -0.006801
O	      6.21400      6.91403      0.91494        -0.001626      0.000490     -0.003023
O	      3.15928      6.88349      0.95299         0.001699     -0.011901      0.005012
O	      1.21153      2.48541      3.65971         0.009187     -0.003382      0.006405
O	      4.58695      2.49795      3.66334        -0.001047      0.003385      0.012702
O	      5.98692      4.90982      3.48379        -0.000927     -0.006658      0.004283
O	      3.08822      4.91349      3.50622         0.004880     -0.011057     -0.003865
O	      4.61568      7.64410      3.46481         0.006442      0.008950     -0.002588
O	      7.63351      7.77353      3.53061        -0.001318      0.005641      0.007729
O	      5.98686      3.29953      5.92723        -0.008317     -0.002518     -0.002006
O	      3.13704      3.32563      6.01081        -0.004843     -0.000551     -0.002457
O	      4.63705      5.84133      5.87261         0.003350     -0.000177      0.008890
O	      7.66555      6.00527      5.97251         0.000054      0.002040      0.002447
O	      2.94575      8.48342      5.92155         0.006361     -0.004310      0.012214
O	      6.36637      8.48982      5.94179        -0.009187     -0.005579      0.004657
