# total energy = -100.64524079 eV
 
CRYSTAL
PRIMVEC
0.000030 2.089853 2.089855 
16.599170 -0.000065 0.000024 
-0.000033 2.089852 -2.089854 
PRIMCOORD
16 1
Li	      0.36522      2.09001     -2.08879         0.001570      0.000197     -0.000494
Li	      2.06721      2.09019      0.00019        -0.036490      0.000599      0.000165
Li	      6.27029      2.09053     -0.00024        -0.030003      0.000093      0.000306
Li	     10.13690      2.09069      0.00056         0.009408      0.000270      0.000153
Ti	      4.15977      0.00076     -0.00052        -0.003222     -0.000487      0.000725
Ti	     14.69740      2.09009      0.00287         0.539316      0.000089     -0.002794
Ni	      8.20932      0.00075      0.00016         0.013541     -0.000588      0.000020
Ni	     12.24265      2.09031     -2.08860         0.016891      0.000352      0.000917
O	     12.65401      2.09031      0.00130         0.094646     -0.000140      0.000076
O	     14.55336      2.09011     -2.08762         0.030682      0.000181     -0.001052
O	      8.18249      2.09060      0.00017        -0.007381      0.000145      0.000136
O	     10.31778      0.00077      0.00054        -0.148054     -0.000544     -0.000288
O	      4.14292      2.09048     -0.00032         0.016553     -0.000563      0.000687
O	      6.02314      0.00060     -0.00013        -0.243158     -0.000360      0.000165
O	     16.49717      2.09008      0.00111        -0.508686      0.000432      0.001210
O	      2.27218      0.00037      0.00010         0.254387      0.000324      0.000067
