# total energy = -232.55926527 eV
 
CRYSTAL
PRIMVEC
6.044316 -0.042066 0.042936 
1.424927 7.650159 -0.054759 
1.595726 2.485140 7.213426 
PRIMCOORD
36 1
Li	      3.08921      5.04102      7.08412        -0.011466      0.001041     -0.004330
Li	      4.59218      7.57608      7.04363         0.000090     -0.012329     -0.008522
Li	      3.04734      8.33288      2.43509         0.002820     -0.006538      0.001922
Li	      1.47785      5.91159      2.48603         0.000269     -0.001627      0.002072
Li	      4.42609      5.92734      2.51899         0.012663     -0.006836      0.005837
Li	      4.50233      9.14489      4.87341        -0.001444      0.005736     -0.005121
Li	      7.59813      4.33527      4.82791         0.001503      0.008183      0.000513
Li	      5.90878      6.67771      4.78758         0.004892      0.001101      0.000396
Li	      3.20448      6.68475      4.74356         0.003610      0.007936     -0.008466
Sc	      2.87094      3.42668      2.37379        -0.007696     -0.008258     -0.009613
Sc	      5.89042      8.32271      2.37596        -0.003243      0.008060      0.005314
Ti	      5.99117      4.97548      0.00779         0.002415      0.000203      0.001491
V	      7.59274      9.22528      4.76239        -0.007256      0.010602     -0.010898
Cr	      4.50787      4.23286      4.81233         0.016447     -0.000215      0.002008
Fe	      0.22742      0.06664      0.05416         0.014690     -0.008130      0.012846
Co	      6.02319      3.36518      2.42008         0.005222      0.009566      0.000650
Cu	      2.97826     -0.01554      0.05436        -0.004250     -0.004444      0.004025
Ni	      6.08152      5.01784      7.15200        -0.005590     -0.002050      0.005905
O	      3.06821      1.67845      1.23098         0.000472     -0.001806     -0.004329
O	      5.96490      1.71150      1.17879        -0.004064     -0.006257     -0.011395
O	      1.35395      4.22712      1.22300        -0.000561      0.006813     -0.006886
O	      4.62988      4.20608      1.23977         0.004168     -0.002317      0.001985
O	      6.23740      6.70970      1.16176        -0.000417     -0.001158     -0.004027
O	      2.99157      6.82615      1.05826        -0.006026     -0.004611      0.000189
O	      1.31828      2.56557      3.51290        -0.000666     -0.001070     -0.004522
O	      4.66351      2.54177      3.58229        -0.006997     -0.001792      0.006757
O	      5.97307      4.87458      3.59649        -0.012937     -0.001164      0.001424
O	      3.07366      4.98589      3.61464        -0.004844      0.011966      0.009870
O	      4.53016      7.64623      3.59411         0.000160      0.003415      0.002980
O	      7.48158      7.77268      3.71356         0.012905     -0.004861      0.005414
O	      5.96617      3.22187      5.96537         0.002318     -0.000223      0.003111
O	      2.97133      3.34325      5.89743        -0.007929      0.003872     -0.000864
O	      4.60589      5.80274      5.99489         0.001251      0.004881      0.002855
O	      7.59962      6.02083      6.10873        -0.002618     -0.004207     -0.003362
O	      2.88758      8.53835      5.97305         0.006997      0.000581      0.002855
O	      6.24555      8.42797      6.09343        -0.004886     -0.004063      0.001918
