# total energy = -232.66626724 eV
 
CRYSTAL
PRIMVEC
5.961364 0.007882 0.013217 
1.469224 7.756047 0.018978 
1.559584 2.605617 7.286158 
PRIMCOORD
36 1
Li	      3.06773      5.17798      7.20765         0.007894     -0.001314      0.001466
Li	      4.52028      7.76162      7.17530         0.003560     -0.006639     -0.004187
Li	      3.02779      8.52734      2.50232        -0.004781      0.011030     -0.007875
Li	      1.59463      6.06187      2.45880         0.020084      0.011612     -0.018266
Li	      4.42904      6.06356      2.59347         0.007533     -0.003563      0.002055
Li	      4.46501      9.34720      4.91274         0.008189     -0.012713      0.004766
Li	      7.49335      4.46406      4.87696        -0.008464      0.000853     -0.000847
Li	      5.85509      6.86398      4.87502         0.002470     -0.017226     -0.007190
Li	      3.19873      6.84125      4.81311        -0.003538      0.001083     -0.005127
Sc	      2.88770      3.53083      2.41687         0.005374     -0.020481     -0.003916
Sc	      5.89789      8.52927      2.49245        -0.003123      0.012101     -0.002902
Ti	      6.00255      5.02956     -0.02668        -0.002287      0.007883     -0.003162
V	      7.56190      9.41443      4.85559        -0.008461     -0.003352     -0.000978
Cr	      4.49364      4.35671      4.87325         0.003357      0.012185      0.009592
Fe	      4.34016      7.74790      0.06996         0.002582      0.007054      0.004394
Co	      5.97104      3.51280      2.45134        -0.006435      0.007709      0.016048
Cu	      0.06938      0.06273      0.00548        -0.009262      0.012258      0.000507
Ni	      6.01532      5.22364      7.25679        -0.006270      0.000402      0.003323
O	      3.03198      1.73609      1.22850         0.006286      0.000454      0.002435
O	      5.90176      1.97517      1.33598         0.008416     -0.007236      0.004726
O	      1.46361      4.41950      1.17549        -0.001206      0.004187     -0.004441
O	      4.53167      4.36500      1.20354         0.011665     -0.002820      0.003672
O	      5.99572      6.96569      1.12439         0.004465     -0.001605      0.003033
O	      2.93615      6.99667      1.16128        -0.007623     -0.004092     -0.003582
O	      1.39447      2.60367      3.65296        -0.007323      0.009472     -0.005176
O	      4.51773      2.58965      3.72604        -0.006416     -0.009836     -0.000927
O	      5.90645      5.01300      3.61758        -0.008885     -0.007734     -0.003754
O	      3.04155      5.07550      3.68688        -0.004097      0.012863      0.001204
O	      4.52735      7.77482      3.64845        -0.001169     -0.004701      0.002101
O	      7.44840      7.96393      3.78920         0.000575      0.005133     -0.002731
O	      5.95778      3.36521      6.02661        -0.002377     -0.001637      0.004862
O	      3.09126      3.42261      6.13420        -0.016251     -0.006825     -0.001473
O	      4.57058      5.92860      6.03581        -0.000696     -0.002032     -0.001359
O	      7.49970      6.17815      6.18621         0.005744      0.004123      0.000807
O	      2.88448      8.58773      6.03540         0.004691     -0.007771      0.003641
O	      6.18896      8.68226      6.18277         0.005779      0.001171      0.009261
