# total energy = -232.92830932 eV
 
CRYSTAL
PRIMVEC
5.973373 0.003242 0.017174 
1.465871 7.722823 0.060439 
1.565088 2.631733 7.262831 
PRIMCOORD
36 1
Li	      3.12663      5.27175      7.16557        -0.003201     -0.002116     -0.001331
Li	      4.54953      7.74365      7.12102        -0.006582     -0.012932      0.011688
Li	      3.09554      8.48682      2.57052        -0.006030      0.001522     -0.000532
Li	      7.45723      6.02982      2.59401         0.000414     -0.000412     -0.010026
Li	      4.48078      6.12358      2.58768         0.000527      0.002130      0.001092
Li	      4.52677      9.27184      4.95356         0.004169     -0.003098     -0.004191
Li	      7.48960      4.54012      4.83608         0.000513      0.011487      0.000144
Li	      5.86709      6.89469      4.82213         0.002042     -0.005436      0.002766
Li	      3.20165      6.82945      4.81259         0.000712     -0.000463     -0.005651
Sc	      0.05928      0.09593      0.07385         0.006131     -0.004871      0.004154
Sc	      2.92511      3.48355      2.47022        -0.002333      0.006304     -0.002817
Ti	      5.97253      5.00701      0.03211         0.000388      0.000601      0.003848
V	      7.51612      9.37306      4.81135        -0.000783     -0.006275     -0.009363
Cr	      4.52728      4.41545      4.87692        -0.004248      0.006571      0.001288
Fe	      4.40415      7.70440      0.16514        -0.003377     -0.003839      0.010758
Co	      5.96541      3.48319      2.47256         0.003586     -0.002710     -0.005586
Cu	      5.88627      8.53497      2.52822         0.018417      0.012368     -0.015079
Ni	      6.00172      5.23185      7.25331         0.001770     -0.003482      0.006002
O	      3.01634      1.70050      1.22980         0.005337     -0.007537      0.001187
O	      5.82439      1.78379      1.33241        -0.005129     -0.001182     -0.002943
O	      1.37182      4.26760      1.26542         0.000791      0.010697     -0.005896
O	      4.57561      4.25896      1.26668         0.000802      0.004012     -0.003026
O	      5.94880      6.76378      1.11413         0.000875      0.000486     -0.000944
O	      2.96747      6.89778      1.19322         0.000793      0.005322      0.001327
O	      1.34112      2.64352      3.58947         0.000398      0.000024      0.002613
O	      4.63326      2.76727      3.70294        -0.002669     -0.005749      0.004896
O	      5.95242      5.03634      3.61231         0.002461      0.000261      0.001570
O	      3.05286      5.08961      3.68878         0.002900     -0.001700      0.004477
O	      4.55702      7.81883      3.67588        -0.012338     -0.007406      0.013843
O	      7.43099      7.93358      3.78927        -0.002519      0.007168      0.007200
O	      5.97176      3.41352      6.03432        -0.002977     -0.005985     -0.003948
O	      3.14080      3.46193      6.11189         0.002178      0.002481      0.000195
O	      4.57730      6.00864      6.05157        -0.004667     -0.002549     -0.004547
O	      7.52151      6.17857      6.18533        -0.000367      0.003787     -0.004554
O	      2.89143      8.67350      6.09977         0.000524      0.004048     -0.001182
O	      6.16879      8.66878      6.16747         0.001489     -0.001526      0.002571
