# total energy = -232.61058767 eV
 
CRYSTAL
PRIMVEC
5.996818 -0.016039 0.023174 
1.447310 7.739781 0.016445 
1.570528 2.591756 7.297303 
PRIMCOORD
36 1
Li	      3.07208      5.19300      7.18106        -0.000718     -0.004906      0.009102
Li	      4.52594      7.68082      7.17782        -0.001265     -0.004925     -0.007902
Li	      3.01610      8.50027      2.54049        -0.003675      0.007205     -0.011685
Li	      1.54547      6.10034      2.43673        -0.000878      0.007549     -0.012978
Li	      4.46822      6.04696      2.60367        -0.008770     -0.001320     -0.002083
Li	      4.42507      9.35168      4.85392         0.006677     -0.009693      0.005176
Li	      1.55875      4.40056      4.89216         0.000803      0.000216      0.005320
Li	      5.89529      6.82742      4.84778         0.000915     -0.016009     -0.011226
Li	      3.22840      6.80431      4.81361        -0.006297     -0.003522     -0.004977
Sc	      2.91835      3.51581      2.44146         0.007128      0.017965     -0.002874
Sc	      4.32763      7.72083      0.10315        -0.000472     -0.012391      0.000920
Ti	      6.00379      4.98633     -0.04124        -0.000364      0.015305      0.003809
V	      7.57897      9.36957      4.86953         0.001266      0.000427      0.022271
Cr	      4.49844      4.33055      4.89050        -0.005064      0.010797      0.010520
Fe	      5.90043      8.52091      2.52001        -0.007994     -0.006186     -0.005399
Co	      6.02424      3.48388      2.47671        -0.000020      0.012672      0.009902
Cu	      0.07263      0.06300      0.04137        -0.013215     -0.002630      0.000276
Ni	      6.03251      5.18577      7.28390        -0.004218      0.006657     -0.003244
O	      3.07514      1.72172      1.28319        -0.007716     -0.001531     -0.000563
O	      5.83716      1.89972      1.38785         0.010150     -0.007820      0.013175
O	      1.42345      4.34604      1.18713         0.002523     -0.007281      0.005680
O	      4.53404      4.35653      1.17967        -0.007293      0.001192      0.003121
O	      6.03827      6.95753      1.19611         0.000597      0.008884     -0.002190
O	      2.88203      6.93556      1.20700        -0.000432      0.001678     -0.001116
O	      1.45938      2.57237      3.65757         0.011310     -0.002485      0.002156
O	      4.53690      2.58963      3.72550         0.003134      0.002607      0.002295
O	      5.93382      4.97932      3.62742         0.000496      0.004370     -0.002439
O	      3.06781      5.07525      3.70321        -0.006099     -0.008911     -0.008454
O	      4.57290      7.76579      3.62175         0.012650      0.003745      0.004287
O	      7.41726      7.95355      3.75751         0.003599     -0.012845     -0.006981
O	      6.00452      3.33837      5.99039        -0.004878      0.004226      0.006898
O	      3.06924      3.43955      6.13264        -0.014701     -0.003865     -0.006449
O	      4.59169      5.90767      6.05370         0.005996     -0.001237     -0.006146
O	      7.53744      6.11150      6.20859         0.001944     -0.015845     -0.002573
O	      2.86927      8.54671      6.02529         0.009292      0.002276     -0.001227
O	      6.22058      8.60378      6.18561         0.015587      0.015631     -0.004400
