# total energy = -227.09672593 eV
 
CRYSTAL
PRIMVEC
6.093296 -0.066748 0.089329 
1.406423 7.593015 -0.043133 
1.653064 2.461688 7.203599 
PRIMCOORD
36 1
Li	      3.15641      5.06016      7.12707        -0.005537      0.005378      0.000667
Li	      4.56638      7.38970      7.17282         0.002851      0.002244      0.009684
Li	      3.04849      8.35079      2.46543         0.003299     -0.006138      0.008062
Li	      1.60388      5.82245      2.46020        -0.004633     -0.001208      0.000693
Li	      4.57092      5.81143      2.58654        -0.001837     -0.004177      0.001851
Li	      4.49664      9.09779      4.82966         0.020406     -0.014297      0.013155
Li	      1.56560      4.31646      4.68379        -0.001539      0.002917     -0.006499
Li	      5.99495      6.64613      4.81636         0.004961     -0.001420     -0.000379
Li	      3.26708      6.60317      4.74424         0.002025     -0.000199     -0.001857
Sc	      4.35734      7.55512      0.06700         0.007027     -0.007591      0.015940
Ti	      6.02992      4.83913      0.02967         0.002296      0.006507      0.009289
V	      7.67366      9.11062      4.75306        -0.003827     -0.000538     -0.015808
Cr	      4.60839      4.18482      4.79570         0.002580     -0.001999     -0.017337
Fe	      0.07547      0.07459      0.05900        -0.010739     -0.009540     -0.008807
Fe	      5.91943      8.33377      2.49126         0.001951      0.002294      0.002260
Co	      6.10527      3.32586      2.44829        -0.002990      0.001951     -0.010306
Cu	      2.98495      3.35666      2.43343        -0.002814     -0.002298      0.003622
Ni	      6.14221      4.97774      7.19316         0.010241      0.011302      0.001763
O	      3.11530      1.69921      1.32339        -0.003215     -0.006588      0.008168
O	      5.94445      1.65581      1.26398        -0.001342      0.010535     -0.000858
O	      1.27590      4.25825      1.14032        -0.013118     -0.002929      0.003287
O	      4.67739      4.14373      1.28722         0.001261      0.001813      0.002906
O	      6.01191      6.78414      1.16260         0.008557      0.002505     -0.003050
O	      2.82859      6.77721      1.10100        -0.001397      0.002050     -0.005387
O	      1.37278      2.56201      3.47602        -0.002897      0.000159      0.000619
O	      4.84885      2.45844      3.67041         0.001074      0.004413     -0.007373
O	      6.05461      4.84566      3.60419        -0.010507     -0.008963      0.002774
O	      3.14352      4.87352      3.61813         0.006037     -0.000854      0.005367
O	      4.59376      7.59961      3.59018         0.002219      0.000376     -0.003141
O	      7.52617      7.66853      3.69866         0.001005      0.006220     -0.002669
O	      6.14090      3.20669      5.97476         0.004904     -0.006234     -0.000500
O	      3.17027      3.24399      6.04295        -0.007879      0.004080     -0.005878
O	      4.66030      5.74181      5.99667        -0.011625      0.005380     -0.005535
O	      7.67897      5.88969      6.10311        -0.001538     -0.010616      0.002578
O	      2.90560      8.47054      5.97764         0.018530      0.009923      0.008813
O	      6.30673      8.33409      6.08816        -0.013788      0.005540     -0.006113
