# total energy = -232.74230453 eV
 
CRYSTAL
PRIMVEC
6.000800 -0.001553 0.001149 
1.466626 7.717661 0.001378 
1.551347 2.577462 7.264853 
PRIMCOORD
36 1
Li	      3.13733      5.21824      7.13052         0.007389     -0.001859     -0.002058
Li	      4.56580      7.69826      7.16337         0.001091      0.005022      0.011615
Li	      3.06763      8.46176      2.50165         0.001187      0.001079     -0.006591
Li	      7.48016      5.99407      2.58388        -0.015345     -0.004590      0.009940
Li	      4.44097      6.06880      2.49411        -0.008444      0.004167     -0.004866
Li	      4.49996      9.32391      4.83215         0.005353      0.000540      0.001289
Li	      7.49025      4.49503      4.78978         0.005864      0.005346      0.006000
Li	      5.86884      6.76945      4.77167        -0.005179      0.000685     -0.001409
Li	      3.23100      6.79778      4.79511         0.007168      0.004919     -0.001171
Sc	      0.13418      0.07868      0.04486         0.000285      0.003216     -0.015226
Sc	      2.89391      3.49382      2.43178        -0.000356     -0.005262      0.010579
Ti	      5.97679      4.97533      0.00243         0.001530     -0.006396     -0.002549
V	      7.55839      9.34119      4.77549        -0.001828      0.027025      0.003729
Cr	      4.52437      4.33902      4.84234        -0.005315     -0.012397      0.011033
Fe	      5.84919      8.48309      2.46344        -0.008875     -0.001357     -0.003865
Co	      6.01168      3.46141      2.42689         0.001658     -0.008313     -0.006285
Cu	      4.44641      7.70288      0.04161         0.024825      0.014380      0.001020
Ni	      5.99209      5.16475      7.22036         0.005905     -0.013719     -0.005685
O	      3.04413      1.71128      1.24427        -0.009993     -0.003187     -0.003361
O	      5.82911      1.72336      1.24976         0.007365      0.001181     -0.002949
O	      1.45378      4.36117      1.15717        -0.015764     -0.002533     -0.003580
O	      4.52213      4.31420      1.14508        -0.000910      0.020760      0.003210
O	      5.98592      6.88618      1.17189        -0.006217     -0.007907     -0.015129
O	      3.00476      6.90605      1.14707         0.009623     -0.006669      0.003601
O	      1.44432      2.54852      3.66588        -0.004598     -0.005954     -0.000571
O	      4.52955      2.56011      3.68533         0.007066     -0.012362     -0.000993
O	      5.93989      5.05020      3.64301         0.013424      0.017140     -0.000863
O	      3.04789      5.06278      3.67357        -0.014043      0.005167      0.003338
O	      4.56072      7.75969      3.60865         0.001009     -0.001744      0.000676
O	      7.42880      7.90994      3.70157        -0.000638     -0.024503     -0.013364
O	      5.97737      3.34299      5.97572         0.000996      0.001187      0.002706
O	      3.14832      3.42460      6.08957        -0.008945      0.002610     -0.005296
O	      4.57656      5.91898      6.00270        -0.003349      0.014323      0.009466
O	      7.53335      6.11845      6.16049         0.007661      0.004870      0.002750
O	      2.86060      8.63205      6.05535         0.015310      0.002934      0.001946
O	      6.21545      8.62078      6.12765        -0.014913     -0.017801      0.012913
