# total energy = -232.71838938 eV
 
CRYSTAL
PRIMVEC
5.967648 -0.009856 0.016060 
1.448047 7.735368 0.071736 
1.557196 2.644630 7.271087 
PRIMCOORD
36 1
Li	      3.07472      5.26885      7.18588        -0.001583     -0.005776     -0.002262
Li	      4.50363      7.74502      7.11789        -0.013366     -0.020574      0.006079
Li	      3.02832      8.51629      2.58735        -0.009716      0.008755     -0.000079
Li	      7.43759      6.06419      2.54582        -0.001283     -0.007070     -0.012786
Li	      4.48657      6.10673      2.65954         0.007765      0.009235      0.001864
Li	      4.47544      9.29145      4.95223         0.004148     -0.001011     -0.015712
Li	      7.49512      4.49604      4.88047         0.005961      0.003998      0.000895
Li	      5.86425      6.93118      4.85359        -0.001631     -0.009181      0.006344
Li	      3.17528      6.82625      4.81518        -0.005221     -0.000647     -0.006668
Sc	      2.91370      3.50376      2.47346        -0.008531     -0.015688      0.015437
Sc	      4.37661      7.73000      0.19563        -0.023108     -0.004150      0.007035
Ti	      5.96407      5.00587      0.03491         0.000713      0.022130     -0.006726
V	      7.49602      9.39228      4.83584         0.018001      0.011657     -0.011641
Cr	      4.51746      4.42458      4.88464        -0.010802     -0.023055     -0.009192
Fe	      0.05527      0.06616      0.06188        -0.004141      0.016605      0.000927
Co	      5.95833      3.48290      2.47999         0.004495     -0.015071      0.009035
Cu	      5.87454      8.54581      2.53445        -0.001208      0.009980      0.006228
Ni	      6.00374      5.24009      7.26135         0.008143      0.000606      0.007133
O	      3.00716      1.75081      1.25801         0.011498     -0.020850     -0.000060
O	      5.80738      1.72276      1.29051        -0.001949     -0.004324     -0.001812
O	      1.36346      4.26668      1.27134        -0.015061      0.007477     -0.008285
O	      4.57459      4.27326      1.27345         0.007198     -0.003359     -0.010473
O	      5.99716      6.77251      1.12619         0.007455     -0.003945     -0.000773
O	      2.85308      6.91602      1.20965         0.022360      0.008352      0.003580
O	      1.33762      2.64720      3.58353         0.002608     -0.002072     -0.007010
O	      4.62557      2.76675      3.71515         0.005551      0.021501     -0.000119
O	      5.94221      5.02712      3.61946        -0.001122      0.010872     -0.001275
O	      3.05729      5.10509      3.70472         0.005064      0.007185      0.003009
O	      4.53590      7.82229      3.67142         0.002357     -0.004127     -0.001046
O	      7.41536      7.95153      3.81666        -0.003357      0.005167      0.001088
O	      6.00896      3.41696      6.03275        -0.006806     -0.002877      0.001327
O	      3.04939      3.47209      6.11572         0.000808      0.003466      0.008102
O	      4.56587      6.00758      6.06419        -0.001325      0.001058     -0.008145
O	      7.52102      6.19831      6.19503        -0.005351      0.002843     -0.002685
O	      2.88195      8.71747      6.12628         0.001544     -0.004865      0.007956
O	      6.14731      8.65647      6.17718        -0.000107     -0.002244      0.020711
