# total energy = -227.01921836 eV
 
CRYSTAL
PRIMVEC
5.964466 -0.013327 0.000695 
1.442533 7.685647 0.030996 
1.536217 2.592790 7.228406 
PRIMCOORD
36 1
Li	      3.12423      5.20038      7.16673         0.006462     -0.008413      0.004036
Li	      4.51265      7.70168      7.13248        -0.001343     -0.015553      0.011418
Li	      3.03331      8.48445      2.48493        -0.004949      0.004938     -0.000673
Li	      1.47447      5.97007      2.54066        -0.008598      0.015702      0.005798
Li	      4.39574      6.04261      2.47430        -0.002388      0.000279     -0.001925
Li	      4.47890      9.26920      4.90191         0.014799     -0.014444      0.012383
Li	      7.46295      4.44234      4.77034        -0.001781      0.002005      0.000885
Li	      5.83818      6.80387      4.79518        -0.001309     -0.021533     -0.011078
Li	      3.19538      6.76722      4.77574         0.002330     -0.005454     -0.010866
Sc	      0.12753      0.09017      0.06629        -0.004697      0.001170     -0.014094
Ti	      5.90478      4.94802     -0.04328        -0.013728      0.000937     -0.002946
V	      7.49083      9.29262      4.77426         0.010289      0.008482     -0.006752
Cr	      4.49133      4.31875      4.82329         0.010981      0.004629     -0.007041
Fe	      2.82983      3.52535      2.42816         0.011758      0.005416      0.006226
Fe	      5.77061      8.47415      2.45425         0.000470      0.006336     -0.016118
Co	      5.94380      3.44413      2.43240        -0.008173     -0.009100     -0.002450
Cu	      2.92681     -0.03297      0.03376         0.003473      0.000701      0.006629
Ni	      5.94065      5.15925      7.22075        -0.007317      0.001428      0.004952
O	      3.01143      1.89597      1.36780         0.004450     -0.004511      0.006902
O	      5.83315      1.76366      1.28098        -0.005893      0.014215     -0.000435
O	      1.35174      4.28619      1.28465        -0.004342     -0.003498      0.004820
O	      4.55709      4.25396      1.24844         0.010245     -0.005717     -0.006469
O	      5.92049      6.88025      1.19447        -0.003429     -0.002246     -0.002350
O	      2.95275      6.85102      1.17702        -0.002770      0.000957      0.011978
O	      1.33441      2.64533      3.57009        -0.004760     -0.008839     -0.011181
O	      4.60472      2.61837      3.60278         0.003110      0.003652      0.003250
O	      5.91150      4.97397      3.58429        -0.010252      0.007191      0.004558
O	      3.02966      5.01718      3.63051        -0.000095     -0.004142      0.006546
O	      4.50743      7.77025      3.63121        -0.008640      0.005850     -0.000363
O	      7.39463      7.88072      3.68070        -0.000824      0.009297      0.010761
O	      5.92027      3.31542      5.96450        -0.003804     -0.007413     -0.005912
O	      3.09851      3.40265      6.02156         0.007614      0.008955     -0.009916
O	      4.54007      5.90850      5.99008        -0.007534     -0.002639     -0.004399
O	      7.50978      6.06117      6.14860         0.003385      0.003936      0.005950
O	      2.85050      8.60125      6.06882        -0.004725     -0.000067      0.000522
O	      6.16807      8.43713      6.03375         0.021981      0.007493      0.007354
