# total energy = -103.55863687 eV
 
CRYSTAL
PRIMVEC
4.139408 -0.003172 0.000217 
2.066209 4.111452 -6.242256 
2.066453 4.171777 2.121267 
PRIMCOORD
16 1
Li	      4.12070      0.07390      0.00019         0.010853      0.014670     -0.004356
Li	      2.04859      2.07521     -0.00013         0.013831     -0.008205     -0.009567
Li	      4.13846      2.06623     -2.04932         0.004441     -0.005417      0.003826
Li	      4.13310      6.22790     -2.03324         0.002727      0.001530      0.008052
Ti	      4.05007      4.25175      0.00863        -0.057986      0.195996     -0.012232
Ti	      6.07457      6.19417     -4.13821        -0.106370     -0.000492      0.006632
Ni	      2.08052      4.08124     -2.06267        -0.007904     -0.028051      0.023230
Ni	      4.14557      4.06723     -4.15280        -0.008170     -0.008105      0.002823
O	      4.15890      4.09081     -1.96087        -0.019604      0.019538      0.134982
O	      6.23018      6.22953     -2.20727        -0.023562     -0.070597     -0.151122
O	      4.16261      2.20808      0.16095        -0.021690      0.024641      0.130150
O	      2.11699      4.18302      0.00200         0.088901      0.020180      0.114121
O	      2.08756      1.94930     -2.06097        -0.008422     -0.305324     -0.019736
O	      6.22857      4.21018     -4.12093        -0.016620      0.093689     -0.120851
O	      4.17713      6.13223     -4.14921         0.162797      0.138527      0.007322
O	      4.14712      4.07600      2.03760        -0.013224     -0.082581     -0.113275
