# total energy = -232.71024610 eV
 
CRYSTAL
PRIMVEC
6.094280 0.017581 -0.014069 
1.513969 7.680020 -0.096191 
1.565555 2.479505 7.281082 
PRIMCOORD
36 1
Li	      3.13636      5.14266      7.13318        -0.003466      0.001546      0.004905
Li	      3.02154      5.01104     -0.06688        -0.006658      0.001962     -0.000007
Li	      3.10445      8.39738      2.41555         0.004885      0.001945      0.004369
Li	      1.66379      5.88013      2.38537         0.024008      0.004716     -0.015814
Li	      4.55058      5.88536      2.53581         0.002349     -0.006108      0.001252
Li	      4.56303      9.24236      4.75918         0.005199     -0.001281      0.009080
Li	      7.65689      4.40201      4.74255         0.001050     -0.000129      0.001259
Li	      5.97442      6.67378      4.76266         0.007093      0.006809      0.010811
Li	      3.28264      6.70191      4.72371         0.002187      0.003688     -0.004690
Sc	      4.45784      7.69121     -0.08062         0.008829     -0.006364     -0.004560
Sc	      5.97869      8.46190      2.42983         0.012405     -0.002479     -0.000444
Ti	      6.09401      4.97099     -0.06478        -0.001758      0.008244      0.004364
V	      7.78106      9.25550      4.68088        -0.013581      0.003544      0.010070
Cr	      4.57992      4.24942      4.79273        -0.000150     -0.012831      0.000602
Fe	      0.06463      0.13655      0.04063        -0.000087      0.001221     -0.005582
Co	      6.13813      3.45046      2.36811         0.001192     -0.002164     -0.004509
Cu	      2.97746      3.46339      2.30488        -0.002335      0.003572     -0.004274
Ni	      6.09625      5.11341      7.17289        -0.007981      0.007662     -0.002483
O	      3.09462      1.79913      1.26110        -0.012373      0.001777      0.001395
O	      5.97060      1.75456      1.16007        -0.000686      0.005213      0.000989
O	      1.44408      4.34701      1.07644        -0.000495      0.001795     -0.002927
O	      4.67131      4.37933      1.03606         0.007697      0.005106     -0.000932
O	      6.13561      6.91681      1.01334        -0.001640     -0.008390     -0.002034
O	      2.94389      6.91650      1.00280        -0.011289      0.004677     -0.001135
O	      1.36322      2.41350      3.78279         0.011649      0.012149     -0.012563
O	      4.74280      2.43900      3.81654        -0.007321      0.005029      0.007758
O	      6.01205      4.96515      3.61575        -0.001212      0.001345      0.006303
O	      3.11101      4.89711      3.55183        -0.009732     -0.000993     -0.006553
O	      4.59396      7.65990      3.52848        -0.001356     -0.006132     -0.001049
O	      7.62976      7.80456      3.66192        -0.003260     -0.024477     -0.016098
O	      6.07686      3.31264      6.00608         0.000313      0.006481      0.001270
O	      3.08527      3.33030      6.07174        -0.000750      0.005367      0.005450
O	      4.61694      5.83184      5.96192        -0.002609      0.000164      0.004051
O	      7.66080      6.04203      6.06852        -0.000159     -0.010104     -0.003861
O	      2.90150      8.59526      5.96815         0.001885     -0.007716      0.001665
O	      6.36777      8.52558      5.98916        -0.001841     -0.004841      0.013922
