# total energy = -226.76302629 eV
 
CRYSTAL
PRIMVEC
5.957256 -0.003429 0.011758 
1.453637 7.700177 0.013245 
1.552013 2.580187 7.259353 
PRIMCOORD
36 1
Li	      3.06473      5.17683      7.15936         0.003207     -0.000670      0.003706
Li	      4.50939      7.64632      7.16764         0.001681     -0.004420     -0.012057
Li	      2.98914      8.48922      2.50968        -0.004739      0.012323     -0.012198
Li	      1.55623      6.03270      2.43021         0.000852      0.001165     -0.004324
Li	      4.42760      6.00163      2.56267         0.004492      0.001050     -0.001407
Li	      4.42170      9.31565      4.82986         0.003587     -0.003499      0.005029
Li	      1.54411      4.36175      4.83154        -0.005358     -0.000098     -0.003649
Li	      5.86479      6.81697      4.82647         0.003961     -0.020149     -0.004734
Li	      3.20290      6.79612      4.78921        -0.010667     -0.002216     -0.004361
Sc	      4.31581      7.70243      0.10018        -0.004002      0.007400     -0.006037
Ti	      6.00790      4.96538     -0.02277         0.009772      0.001870      0.008279
V	      7.53624      9.33349      4.83197         0.003834      0.004488      0.006044
Cr	      4.48056      4.31262      4.83118        -0.000203     -0.000463      0.005530
Fe	      2.86989      3.49807      2.40280        -0.003175     -0.007732     -0.003044
Fe	      5.87033      8.50173      2.51306         0.002656      0.013494     -0.001108
Co	      5.95180      3.45963      2.44863        -0.008654     -0.014003     -0.005937
Cu	      0.06874      0.06825      0.03521        -0.008964     -0.000750      0.003251
Ni	      5.99185      5.17486      7.23470         0.005897      0.003720     -0.002271
O	      3.03229      1.78608      1.29743         0.010543      0.005252     -0.002598
O	      5.81678      1.89475      1.37252        -0.003338     -0.004412      0.012914
O	      1.47326      4.32244      1.17425         0.020731      0.002250     -0.002560
O	      4.51792      4.31144      1.20706        -0.002417      0.004550      0.006499
O	      6.01556      6.94547      1.18419         0.004982     -0.008731     -0.004647
O	      2.88549      6.91262      1.20402        -0.009348     -0.010484     -0.002785
O	      1.40800      2.58262      3.60073         0.007463      0.005739      0.000121
O	      4.49734      2.55824      3.70779        -0.018661      0.000818      0.015387
O	      5.89318      4.96403      3.58652        -0.002515      0.023162      0.012456
O	      3.03103      4.98783      3.61471        -0.001275      0.009477      0.000929
O	      4.53980      7.73189      3.59523         0.006635     -0.005172      0.016127
O	      7.39057      7.90541      3.73813        -0.009102     -0.010200      0.005438
O	      5.97100      3.34095      5.95972        -0.012032      0.001477      0.002147
O	      3.04073      3.42786      6.08308        -0.016077     -0.009432     -0.005892
O	      4.55685      5.88929      5.99398         0.016773     -0.001371     -0.015105
O	      7.49856      6.09740      6.16538        -0.001262     -0.005202     -0.004244
O	      2.87154      8.50541      6.00197        -0.007172      0.001477     -0.005640
O	      6.19011      8.57295      6.15896         0.021895      0.009295      0.000737
