# total energy = -227.13536279 eV
 
CRYSTAL
PRIMVEC
5.931844 0.000379 0.016255 
1.452129 7.703234 0.058872 
1.552375 2.623596 7.250635 
PRIMCOORD
36 1
Li	      3.07604      5.22468      7.17221        -0.001354     -0.000385     -0.002244
Li	      4.49967      7.73690      7.11010        -0.006816     -0.013713      0.011834
Li	      3.04238      8.46528      2.53713        -0.002283      0.002509     -0.001293
Li	      7.41668      6.03305      2.56414         0.000047      0.001468     -0.005559
Li	      4.45036      6.10267      2.60268         0.002664      0.001970      0.002496
Li	      4.48114      9.25115      4.94922        -0.002319      0.002663     -0.010118
Li	      7.44856      4.50082      4.84879        -0.003151      0.006599      0.002052
Li	      5.82970      6.88443      4.82119        -0.002071     -0.008164      0.006069
Li	      3.16820      6.80604      4.79634         0.000995     -0.000132     -0.000915
Sc	      2.90873      3.46788      2.46066        -0.011599     -0.004871     -0.004715
Ti	      5.93234      4.99756      0.02760        -0.004858     -0.000740     -0.015217
V	      7.46734      9.34701      4.80877        -0.007860      0.005508     -0.006947
Cr	      4.49117      4.40619      4.87055         0.006597     -0.006169      0.011025
Fe	      0.05964      0.07368      0.06436        -0.009831      0.011110     -0.004158
Fe	      4.36284      7.70154      0.15816        -0.006593     -0.010550      0.006428
Co	      5.92973      3.47393      2.47051         0.010868      0.002775     -0.008155
Cu	      5.85096      8.49712      2.51271         0.012429      0.014235     -0.015804
Ni	      5.96787      5.20512      7.23724         0.008041      0.002716     -0.005156
O	      2.98200      1.70469      1.22022         0.005251     -0.017003      0.006472
O	      5.78800      1.72755      1.29226        -0.006690     -0.013297      0.007301
O	      1.36262      4.26146      1.26780        -0.005174      0.013579     -0.016206
O	      4.54843      4.25711      1.26578         0.004266      0.012685     -0.001303
O	      5.93765      6.78468      1.09791        -0.002471     -0.001136      0.002382
O	      2.89939      6.89230      1.17055         0.022457      0.000838      0.012676
O	      1.33685      2.63637      3.58419         0.004462     -0.011994      0.007700
O	      4.60109      2.75307      3.69941        -0.000515     -0.005194      0.016280
O	      5.91206      5.01869      3.60708        -0.008600      0.003255      0.004050
O	      3.03261      5.07877      3.68204         0.005180      0.001344      0.004298
O	      4.51786      7.79233      3.66014        -0.006406     -0.000927     -0.000484
O	      7.38958      7.90431      3.79470        -0.001160      0.008817      0.006959
O	      5.95103      3.39464      6.04302        -0.004349     -0.001623     -0.008909
O	      3.06927      3.43671      6.11739         0.003695      0.004518     -0.010307
O	      4.53950      5.98857      6.04349        -0.009217     -0.005785     -0.002785
O	      7.47511      6.17210      6.16602         0.006083      0.012943      0.006652
O	      2.88205      8.67211      6.10480         0.006118     -0.007818     -0.003263
O	      6.11598      8.64591      6.16046         0.004162     -0.000029      0.008864
