# total energy = -222.29382662 eV
 
CRYSTAL
PRIMVEC
5.881267 0.003407 -0.009696 
1.444776 7.814601 0.145110 
1.509870 2.749558 7.305154 
PRIMCOORD
36 1
Li	      2.99039      5.41781      7.21815        -0.003124      0.004309      0.007073
Li	      4.41818      7.87234      7.26315        -0.000972     -0.022075     -0.009278
Li	      2.93807      8.67212      2.61903        -0.003495      0.004003      0.007479
Li	      1.50726      6.16478      2.50178         0.001194     -0.008428     -0.011549
Li	      4.37195      6.20097      2.65426        -0.005581     -0.002148     -0.001129
Li	      4.39338      9.46545      4.93548         0.009857     -0.003138     -0.013755
Li	      1.52660      4.52632      4.95750         0.010209      0.003994      0.000015
Li	      5.80297      6.99459      4.88461         0.017833     -0.002620     -0.009434
Li	      3.05908      6.93644      4.94770        -0.011568      0.003253     -0.006668
Sc	      4.32143      7.80059      0.26341         0.007210      0.008198     -0.003612
Ti	      5.87594      5.07831      0.04524        -0.006082     -0.012463     -0.012940
V	      7.40792      9.58486      4.95483        -0.006923      0.001863      0.026031
Cr	      4.40077      4.50709      4.94442        -0.006792     -0.009892     -0.004009
Fe	      2.89247      3.59636      2.53418         0.012260     -0.008314     -0.011145
Co	      5.90685      3.63048      2.54728        -0.012057      0.006499      0.008492
Cu	      0.06400      0.01653      0.00915         0.005831     -0.001618     -0.001751
Cu	      4.38335      0.93768      2.48129        -0.010215      0.013496     -0.018455
Ni	      5.91364      5.39776      7.33176        -0.001807     -0.007600      0.002097
O	      3.06081      1.77181      1.37906        -0.012761     -0.016792     -0.008819
O	      5.68794      1.91725      1.48021         0.008689      0.003746     -0.002248
O	      1.43985      4.29110      1.26185         0.008181      0.017231      0.019121
O	      4.41899      4.37376      1.23964        -0.006337      0.010016     -0.004162
O	      5.97303      6.79517      1.12224        -0.004535     -0.008553      0.003933
O	      2.85563      7.01589      1.32104        -0.014146      0.013947      0.012097
O	      1.45000      2.67755      3.67727         0.008615     -0.004404     -0.006960
O	      4.42654      2.84851      3.81414        -0.002476      0.009597     -0.005022
O	      5.84024      5.13729      3.65835         0.002674     -0.009693     -0.007898
O	      2.97571      5.16990      3.69577        -0.006257     -0.003339      0.008095
O	      4.52551      7.92077      3.65337         0.012560     -0.003311      0.004635
O	      7.20990      8.16172      3.80919        -0.002010      0.000058      0.011465
O	      5.91497      3.49045      6.02276        -0.004906      0.000357      0.016198
O	      3.00087      3.66783      6.21731        -0.009281      0.012586     -0.004869
O	      4.48165      6.10292      6.09081         0.008849      0.011545      0.006474
O	      7.36865      6.33066      6.24100         0.009453     -0.003779     -0.002607
O	      2.82122      8.70182      6.06478         0.007579     -0.002689      0.003310
O	      6.04358      8.85077      6.24788         0.000327      0.006160      0.009794
