# total energy = -222.68081531 eV
 
CRYSTAL
PRIMVEC
5.979138 -0.060803 0.103625 
1.385072 7.767493 0.103417 
1.642842 2.656245 7.320758 
PRIMCOORD
36 1
Li	      3.09158      5.40821      7.20340         0.007041      0.000245      0.007003
Li	      2.91706      5.02817      0.07611         0.005952     -0.008554      0.009496
Li	      3.06633      8.49065      2.62438        -0.018380     -0.000379      0.016435
Li	      1.58478      5.89570      2.53475         0.001869      0.002381     -0.001015
Li	      4.51824      6.04601      2.67915        -0.001738     -0.000592     -0.006128
Li	      4.52027      9.34809      4.97896        -0.000542      0.006483      0.014819
Li	      7.50544      4.51861      4.94687        -0.009994      0.012795     -0.002412
Li	      5.92023      6.81925      4.89016         0.006320     -0.004066      0.002069
Li	      3.16867      6.81198      4.94562         0.005863      0.010216     -0.000055
Sc	      0.03027      0.09102      0.05677        -0.011452      0.000692     -0.012926
Ti	      5.86477      4.96009      0.16695        -0.007597      0.005835     -0.002116
V	      7.52661      9.40328      4.91516         0.001909     -0.003120      0.003459
Cr	      4.57320      4.41182      5.00479        -0.004760     -0.009148      0.011965
Fe	      4.31425      7.66523      0.20004        -0.001416     -0.009938      0.011957
Co	      6.01107      3.47170      2.57448        -0.017869      0.016638     -0.011595
Cu	      2.99220      3.46951      2.56556        -0.001685      0.002853      0.010849
Cu	      5.82686      8.60724      2.64478        -0.003825     -0.011211      0.014937
Ni	      6.01843      5.25604      7.38423        -0.000021      0.008445     -0.012030
O	      3.10169      1.71556      1.49612         0.006582      0.003888     -0.005223
O	      5.75655      1.70309      1.42417        -0.010156      0.006297     -0.007339
O	      1.31634      4.39946      1.09743        -0.002968      0.001548     -0.001369
O	      4.42684      4.27748      1.27145         0.018191      0.013209     -0.001324
O	      5.81716      6.76042      1.18280         0.007978     -0.004749      0.012492
O	      2.85825      6.95502      1.25632         0.006291      0.000704      0.002577
O	      1.47210      2.57479      3.78556         0.003342     -0.004128     -0.006091
O	      4.74531      2.63722      4.07066         0.010954     -0.007944     -0.013417
O	      5.98702      5.07745      3.77077         0.000802      0.000257     -0.010139
O	      3.10216      5.01790      3.74485        -0.007209     -0.011968     -0.010707
O	      4.55995      7.81531      3.72996         0.002476     -0.000168      0.003914
O	      7.33553      7.98771      3.85129         0.016059      0.002667      0.000454
O	      6.03229      3.48463      6.23164         0.000256     -0.013390     -0.013079
O	      3.21986      3.54952      6.29410         0.001010     -0.002830     -0.004139
O	      4.58115      6.02762      6.13173        -0.008606      0.000404     -0.018868
O	      7.52273      6.19985      6.27187         0.005018     -0.006186      0.013198
O	      2.80596      8.80803      6.08354         0.006095      0.016992      0.008132
O	      6.17350      8.74832      6.24831        -0.005791     -0.014179     -0.003785
