# total energy = -103.67992107 eV
 
CRYSTAL
PRIMVEC
2.103721 4.109006 2.066898 
4.235296 -2.051130 -2.100990 
0.029437 4.096483 -4.138087 
PRIMCOORD
16 1
Li	      6.34744      6.14510     -4.17111        -0.011339     -0.006546     -0.014230
Li	      2.13326      2.06174     -0.03986        -0.003739      0.015762      0.002598
Li	      4.26123      2.05917     -2.08364         0.008924     -0.003399     -0.004696
Li	      2.10329      4.03429     -2.08718        -0.009076     -0.007584      0.001791
Ti	      4.10212      4.10772     -0.00830        -0.329311      0.096388      0.074251
Ti	      4.36784      4.04507     -4.23127         0.194742     -0.153264     -0.136129
Ni	      4.26415      0.03343     -4.11695         0.022100      0.032345      0.038491
Ni	      4.19868      6.16636     -2.08708        -0.050577      0.031841      0.039935
O	      2.06513      1.95055     -2.11849         0.130706     -0.151937      0.109672
O	      4.29002      4.11284     -2.06763        -0.117696     -0.120360      0.009960
O	      2.27064      4.09408     -4.25667         0.036405      0.116984     -0.115710
O	      4.21752      2.05881     -0.00298         0.021575      0.000905     -0.125524
O	      4.18061      0.01461     -2.00178        -0.052116     -0.012489      0.241573
O	      2.25557      4.10823      0.00684         0.354362     -0.097579     -0.005230
O	      4.23562      2.14329     -4.13245         0.079741      0.271204     -0.024566
O	      2.02598      6.16290     -2.03491        -0.274700     -0.012270     -0.092186
