# total energy = -227.27302602 eV
 
CRYSTAL
PRIMVEC
6.092669 0.070106 -0.091804 
1.580616 7.629234 -0.126344 
1.494405 2.461740 7.194049 
PRIMCOORD
36 1
Li	      3.21186      5.12753      7.01142         0.001884     -0.002029      0.000375
Li	      4.62763      7.50285      7.06635         0.002566      0.004227     -0.013386
Li	      3.14915      8.41998      2.34265         0.000426      0.006452      0.001481
Li	      1.69245      5.88947      2.38231         0.007979      0.001711     -0.008572
Li	      4.50747      5.91951      2.34901        -0.009902      0.001059     -0.002787
Li	      4.59324      9.20307      4.62828        -0.016318      0.019519     -0.006875
Li	      1.55056      4.35136      4.63855         0.010914      0.001511     -0.004964
Li	      5.96875      6.71579      4.63968        -0.008020     -0.004376     -0.001809
Li	      3.29903      6.72900      4.62656         0.003893      0.000778     -0.008642
Sc	      0.09413      0.12548      0.02840         0.006640      0.007940     -0.002951
Ti	      6.21728      4.95797     -0.16391        -0.014581     -0.002386     -0.001954
V	      7.67048      9.20850      4.52580         0.011296     -0.009689      0.000687
Cr	      4.52162      4.23953      4.68535        -0.020246      0.011534      0.003113
Fe	      4.56526      7.63431     -0.12590        -0.019451      0.001699     -0.003836
Fe	      5.96198      8.42116      2.30167         0.003897      0.001209     -0.003902
Co	      6.10405      3.43739      2.30250        -0.011658      0.015326      0.002779
Cu	      2.97415      3.42243      2.29629         0.000395      0.008439      0.007976
Ni	      6.04221      5.10877      7.05552         0.007988      0.001935      0.007751
O	      3.11095      1.77486      1.17317         0.007883     -0.011500     -0.009690
O	      5.93566      1.81838      1.20312         0.004638     -0.001287      0.007882
O	      1.53570      4.29850      1.07968         0.018801     -0.005160      0.010131
O	      4.82509      4.34512      1.02149         0.019795     -0.008059      0.013733
O	      6.17801      6.92268      0.95156        -0.001097     -0.001694      0.005686
O	      3.13463      6.86907      0.95932         0.012207     -0.006162      0.008242
O	      1.20719      2.47535      3.64092        -0.010009     -0.009303      0.003852
O	      4.53902      2.48727      3.60402        -0.006513      0.000188      0.003299
O	      5.96524      4.90297      3.46252         0.004337     -0.011378     -0.004052
O	      3.07670      4.93047      3.48628         0.006931     -0.005499     -0.003699
O	      4.64721      7.65978      3.40656        -0.001666     -0.000378      0.004124
O	      7.56684      7.76155      3.46912        -0.001889      0.007732      0.005131
O	      5.95189      3.28864      5.88603        -0.006426     -0.006288     -0.006007
O	      3.11368      3.33143      5.98408         0.004159      0.002265     -0.001721
O	      4.61887      5.84196      5.82655        -0.001954      0.000141      0.002135
O	      7.63289      5.98615      5.92483         0.001369     -0.001352      0.002547
O	      2.92104      8.46534      5.87571        -0.009050     -0.006189      0.000627
O	      6.32879      8.47914      5.90576         0.000783     -0.000939     -0.006704
