# total energy = -226.76643268 eV
 
CRYSTAL
PRIMVEC
5.965046 -0.007655 -0.013569 
1.450187 7.715641 0.005256 
1.521811 2.582935 7.248282 
PRIMCOORD
36 1
Li	      3.09140      5.17515      7.18494        -0.003012      0.000866      0.000363
Li	      4.48648      7.72836      7.15887         0.008407      0.001745      0.004175
Li	      2.99556      8.51669      2.45029        -0.007950      0.000202     -0.002482
Li	      1.53549      6.01578      2.46619         0.013697      0.003697     -0.010761
Li	      4.35640      6.02884      2.48582         0.004523     -0.002651     -0.002207
Li	      4.46528      9.28845      4.88404         0.014228     -0.020194      0.011711
Li	      7.47193      4.42256      4.79807        -0.011934      0.005044     -0.003916
Li	      5.80679      6.82853      4.84443         0.015355     -0.002698     -0.009693
Li	      3.17346      6.76177      4.76555        -0.009525      0.002750     -0.009538
Sc	      5.77068      8.49730      2.44148        -0.010483      0.003802      0.003794
Ti	      5.96241      4.99023     -0.06613         0.000820     -0.005837     -0.012230
V	      7.48825      9.31842      4.77143        -0.020294     -0.004649     -0.008123
Cr	      4.46325      4.28969      4.84042         0.024219     -0.011235      0.002871
Fe	      0.12870      0.08788      0.04479         0.008170     -0.006000      0.024129
Fe	      2.81501      3.55211      2.38138        -0.000755      0.013032      0.016140
Co	      5.95022      3.45335      2.40492         0.003629     -0.009073     -0.001740
Cu	      4.38276      7.69008      0.01425         0.002314     -0.015381      0.000692
Ni	      5.94276      5.17690      7.20148         0.010774      0.008542      0.002699
O	      2.99778      1.94340      1.35154         0.010238     -0.023963     -0.008860
O	      5.88870      1.78551      1.19432         0.004784      0.007652      0.013328
O	      1.46240      4.39173      1.17725        -0.009168      0.011528      0.005989
O	      4.55627      4.30967      1.19464         0.006882      0.001870      0.004015
O	      5.99166      6.91060      1.10290         0.011041     -0.003695      0.006074
O	      2.93774      6.94998      1.11887        -0.013658      0.016381     -0.004193
O	      1.32506      2.62249      3.59429        -0.017386      0.008125      0.001417
O	      4.51642      2.52510      3.73861        -0.000033      0.009276      0.000858
O	      5.86893      4.94055      3.57368        -0.014243     -0.005360     -0.000548
O	      3.01574      4.99842      3.62657         0.002935      0.003829      0.006467
O	      4.45467      7.71142      3.61864        -0.001526     -0.004314      0.007539
O	      7.43575      7.89475      3.68967        -0.006473      0.013673     -0.000561
O	      5.92741      3.33133      6.00539        -0.004260     -0.000584     -0.004308
O	      3.04007      3.39972      6.07755        -0.004060     -0.000415     -0.003342
O	      4.52479      5.88413      5.97511        -0.006006      0.000867     -0.011334
O	      7.50543      6.10225      6.12236         0.006560     -0.007556     -0.001961
O	      2.86388      8.67351      6.07811        -0.005111      0.010854     -0.008971
O	      6.18512      8.47505      6.02504        -0.002700     -0.000131     -0.007493
