# total energy = -222.61389636 eV
 
CRYSTAL
PRIMVEC
6.038852 0.066130 -0.087820 
1.563124 7.669374 -0.107406 
1.482051 2.493011 7.230267 
PRIMCOORD
36 1
Li	      3.09414      5.14595      7.06116        -0.005523      0.000901     -0.001144
Li	      3.02298      5.04226     -0.09708         0.006959     -0.008366     -0.000711
Li	      3.07851      8.44849      2.32815         0.000421     -0.005551      0.003237
Li	      1.71265      5.98332      2.28047         0.000612     -0.008271     -0.008125
Li	      4.46142      5.95042      2.42185        -0.004137      0.001917     -0.005546
Li	      4.58785      9.26886      4.63758        -0.007076      0.010446     -0.011178
Li	      1.56412      4.33296      4.78633         0.006874     -0.008578      0.004067
Li	      5.93390      6.72048      4.64919        -0.005016      0.012260     -0.004581
Li	      3.25658      6.71333      4.62324         0.009658     -0.002275     -0.005235
Sc	      2.90278      0.05090      0.01276        -0.008818      0.003197      0.001224
Ti	      6.09115      5.00174     -0.14047         0.003235      0.010163      0.019607
V	      7.75292      9.23637      4.62767        -0.005213     -0.001338     -0.014591
Cr	      4.47010      4.25958      4.73607        -0.002845     -0.011945     -0.001441
Fe	      5.97757      8.49302      2.32467        -0.003676     -0.000646      0.000375
Co	      6.05817      3.51134      2.32441        -0.001643     -0.000919      0.000171
Cu	      0.06586      0.11422      0.02198        -0.003900     -0.001181      0.003412
Cu	      2.97099      3.44608      2.32834        -0.001667      0.002669      0.005156
Ni	      6.00128      5.14359      7.11036         0.001160      0.004057      0.000904
O	      3.07223      1.81826      1.21374        -0.015684      0.002669     -0.004109
O	      5.86407      1.92509      1.31329         0.007345      0.004355      0.005221
O	      1.45925      4.29109      1.13869         0.000525     -0.008263     -0.002130
O	      4.68832      4.45482      0.97339         0.000469      0.007144     -0.007985
O	      6.19066      6.96415      0.95989         0.010497     -0.001689      0.008018
O	      3.00339      6.89174      0.99722        -0.001407      0.002676     -0.001445
O	      1.26255      2.41950      3.77171        -0.009413     -0.012158      0.002273
O	      4.53887      2.52533      3.63857         0.004549     -0.000263      0.003987
O	      5.92658      4.92666      3.50222         0.008752      0.008491      0.006579
O	      3.04916      4.95766      3.51215         0.010638     -0.000878      0.005288
O	      4.63940      7.69167      3.39400         0.006277      0.004846      0.003016
O	      7.52895      7.84131      3.52054        -0.001912      0.010228      0.007041
O	      5.96645      3.32549      5.90588        -0.001185      0.004431     -0.007525
O	      3.01367      3.38393      5.98985         0.006760      0.001518      0.007196
O	      4.56265      5.86454      5.87565         0.001510      0.006687      0.001690
O	      7.54483      6.05506      5.98938        -0.009526     -0.016824     -0.016682
O	      2.90700      8.42257      5.82231         0.006223     -0.008509      0.004253
O	      6.31430      8.56863      5.86967        -0.003823     -0.000999     -0.000288
