# total energy = -227.01427559 eV
 
CRYSTAL
PRIMVEC
5.953855 -0.020240 0.015790 
1.430922 7.705826 0.040921 
1.548784 2.603886 7.229746 
PRIMCOORD
36 1
Li	      3.07745      5.16945      7.16692         0.009150     -0.007019      0.001047
Li	      4.49985      7.74908      7.11158        -0.006352     -0.008098      0.001295
Li	      3.01442      8.47910      2.46344        -0.007167     -0.002186     -0.001856
Li	      7.40705      6.00844      2.55173         0.004254      0.009584     -0.005606
Li	      4.41101      6.06473      2.53282        -0.002844      0.000712      0.001831
Li	      4.47095      9.26874      4.94563         0.002832     -0.005835      0.006211
Li	      7.46560      4.46026      4.84388        -0.003046      0.001410     -0.001490
Li	      5.84014      6.83137      4.82760         0.001234     -0.007571     -0.009397
Li	      3.18851      6.77203      4.77815         0.002380      0.000532     -0.003709
Sc	      2.85187      3.52646      2.43646         0.004786      0.005184      0.014186
Ti	      5.89844      4.97597     -0.02709        -0.005577      0.002853     -0.023240
V	      7.47347      9.32337      4.80517         0.015835      0.008196     -0.017260
Cr	      4.47816      4.34144      4.85870         0.015166      0.011708     -0.001285
Fe	      0.12104      0.06910      0.06044         0.004179     -0.006059     -0.001059
Fe	      5.78531      8.46952      2.44345        -0.009309     -0.002536     -0.005744
Co	      5.93784      3.45276      2.45213         0.011686      0.001092      0.006542
Cu	      4.34041      7.68205      0.07556        -0.006009     -0.002971      0.005533
Ni	      5.96370      5.15507      7.22172        -0.005025      0.007113      0.006206
O	      3.03605      1.80588      1.33053         0.007963      0.019734      0.013718
O	      5.83990      1.72873      1.26002        -0.008336     -0.011382     -0.008525
O	      1.33555      4.30804      1.27220        -0.016890      0.001346     -0.006347
O	      4.56319      4.27468      1.26023         0.009107      0.001560     -0.015963
O	      5.98797      6.88366      1.19730        -0.021238      0.011356     -0.005641
O	      2.91054      6.88830      1.14569        -0.007032      0.001368     -0.001821
O	      1.32014      2.64520      3.58242        -0.015385     -0.013472     -0.003185
O	      4.59636      2.62803      3.62511        -0.001928      0.004301      0.010679
O	      5.90280      4.97510      3.61021        -0.002206      0.009338      0.009290
O	      3.03971      5.09413      3.69305        -0.006259     -0.005950     -0.000151
O	      4.51261      7.78009      3.63172         0.008761      0.012474     -0.000966
O	      7.38348      7.90882      3.71391         0.003181      0.002821      0.018427
O	      5.91848      3.31912      6.00476         0.005585     -0.020043     -0.000602
O	      3.02269      3.41006      6.04167         0.012019     -0.016265      0.008277
O	      4.54082      5.92235      6.02280         0.000420      0.003019      0.011106
O	      7.50309      6.10451      6.15868        -0.001163      0.008339      0.001541
O	      2.85620      8.65855      6.08225         0.001195      0.000332      0.006149
O	      6.14806      8.47786      6.06515         0.006033     -0.014987     -0.008190
