# total energy = -226.94160434 eV
 
CRYSTAL
PRIMVEC
6.078882 -0.046074 0.071193 
1.428747 7.612519 -0.094993 
1.637556 2.427647 7.258536 
PRIMCOORD
36 1
Li	      3.18965      5.02797      7.19453        -0.008565     -0.000862      0.007003
Li	      4.59107      7.39247      7.20913         0.003866      0.000939      0.003463
Li	      3.06877      8.34225      2.42014        -0.001660      0.000439      0.006163
Li	      1.71256      5.83284      2.43166         0.005112     -0.004098     -0.004039
Li	      4.45382      5.82471      2.51039         0.006484     -0.020232      0.013943
Li	      4.47758      9.11370      4.78067         0.005684      0.001828      0.026046
Li	      1.58526      4.30152      4.73897         0.000872     -0.001034     -0.009427
Li	      5.94125      6.63069      4.82010         0.006358      0.003207      0.007674
Li	      3.26159      6.61330      4.77831         0.005996      0.006273     -0.006592
Sc	      5.89735      8.33888      2.45040         0.011651      0.011986      0.002907
Ti	      6.00842      4.88674     -0.02212        -0.000427     -0.002959     -0.009539
V	      7.67425      9.09492      4.74827        -0.000725      0.009738     -0.011673
Cr	      4.56697      4.14552      4.84268         0.003208     -0.020113      0.002972
Fe	      0.09586      0.08476      0.03544        -0.006762      0.006945     -0.000812
Fe	      4.38275      7.57989     -0.03187        -0.003395     -0.008585     -0.010010
Co	      6.16104      3.38433      2.46278        -0.006392     -0.005811      0.005015
Cu	      2.97332      3.33016      2.42710        -0.001944     -0.004869     -0.015912
Ni	      6.11769      4.97667      7.21488         0.000417      0.012286     -0.011148
O	      3.08308      1.69391      1.26304         0.006462     -0.005429     -0.009371
O	      5.98210      1.71693      1.22152         0.004190      0.010332      0.001130
O	      1.32137      4.33142      1.07716         0.012010      0.003501     -0.006549
O	      4.60386      4.23481      1.16443        -0.014823      0.000079     -0.005736
O	      5.99934      6.81307      1.03482        -0.004325      0.004474     -0.006789
O	      2.91076      6.83163      1.02768        -0.003400      0.010560      0.004581
O	      1.46134      2.48645      3.58589         0.010171     -0.001241     -0.000573
O	      4.79064      2.41271      3.77592         0.001639     -0.015015     -0.004334
O	      6.02361      4.83714      3.59400         0.002196      0.008010      0.005983
O	      3.12388      4.83460      3.61660        -0.004298      0.005343     -0.001746
O	      4.54458      7.53633      3.57647        -0.013700     -0.003342      0.006817
O	      7.54925      7.65824      3.68522        -0.001910      0.000209     -0.010836
O	      6.09420      3.20046      6.03663        -0.002640     -0.010143      0.001891
O	      3.19970      3.22247      6.10792         0.004762     -0.003559      0.016112
O	      4.64113      5.72235      5.99545        -0.006681      0.008646      0.005369
O	      7.64935      5.89973      6.09897        -0.005216     -0.004618      0.001786
O	      2.91657      8.47707      5.98413         0.001592      0.000253     -0.000018
O	      6.29853      8.37716      6.07121        -0.005808      0.006863      0.006249
