# total energy = -226.69650319 eV
 
CRYSTAL
PRIMVEC
5.948077 0.006358 0.019926 
1.463804 7.710066 0.012346 
1.563535 2.582357 7.262320 
PRIMCOORD
36 1
Li	      3.08007      5.14643      7.20913         0.001954     -0.000962      0.003124
Li	      4.52312      7.68725      7.16888         0.001520     -0.011076     -0.006699
Li	      3.01758      8.50555      2.48276        -0.003788      0.015982     -0.006215
Li	      1.60622      6.00203      2.45849         0.013716      0.007727     -0.009970
Li	      4.40774      6.01071      2.56250         0.012238     -0.006478      0.006086
Li	      4.45041      9.31058      4.87603         0.003630     -0.009160      0.004405
Li	      7.48388      4.40405      4.83963        -0.002655      0.002145     -0.006671
Li	      5.84128      6.81256      4.84785         0.008827     -0.024046     -0.009825
Li	      3.19890      6.81720      4.81000        -0.011622     -0.006180     -0.003570
Sc	      5.86838      8.49964      2.49350        -0.000504      0.007704      0.001397
Ti	      5.99326      4.99510     -0.01501         0.001736     -0.010921      0.012248
V	      7.55858      9.35137      4.83535        -0.005183      0.001158      0.006847
Cr	      4.48764      4.31786      4.84864        -0.003930     -0.010161     -0.013653
Fe	      2.86611      3.50927      2.38635        -0.000204      0.019316      0.012454
Fe	      4.32853      7.69007      0.06100        -0.004994      0.004703     -0.007809
Co	      5.96038      3.48622      2.44710         0.003498     -0.006059     -0.007895
Cu	      0.06872      0.07205      0.01379        -0.001016      0.007116      0.013078
Ni	      5.99869      5.19063      7.23629         0.013194      0.009822      0.007126
O	      3.00793      1.79861      1.27035         0.018060     -0.002070     -0.016186
O	      5.88920      1.95038      1.32916        -0.006208     -0.003177      0.000834
O	      1.47685      4.36953      1.18699         0.017678      0.010219      0.000827
O	      4.50425      4.32555      1.21424        -0.004152     -0.007920      0.001744
O	      5.96886      6.93185      1.12184        -0.005620     -0.004350     -0.011919
O	      2.93312      6.95840      1.16019        -0.007047     -0.008288     -0.009061
O	      1.42102      2.59360      3.62032        -0.008156      0.004178      0.012289
O	      4.52970      2.56682      3.72405        -0.009798      0.015549      0.020036
O	      5.89978      4.98713      3.60591        -0.017720     -0.007493      0.002636
O	      3.03163      4.97832      3.62056        -0.004668      0.018805     -0.003719
O	      4.50440      7.71889      3.63503         0.010853     -0.000052      0.007277
O	      7.43436      7.90436      3.77429        -0.002806     -0.004615      0.000977
O	      5.95155      3.34428      6.01440        -0.009800      0.006261      0.012163
O	      3.09469      3.39531      6.11902        -0.005445     -0.014746     -0.004361
O	      4.55382      5.89148      6.00668         0.007855      0.005370     -0.001961
O	      7.49637      6.12957      6.16686        -0.010040      0.007613      0.001621
O	      2.88887      8.52772      6.02176        -0.000519      0.002422     -0.011164
O	      6.18517      8.61465      6.16346         0.011118     -0.008336      0.003511
