# total energy = -222.26010771 eV
 
CRYSTAL
PRIMVEC
5.877448 0.000157 -0.007221 
1.438234 7.847335 0.135495 
1.509540 2.749974 7.314100 
PRIMCOORD
36 1
Li	      1.52970      2.56202      0.01965        -0.001830     -0.003137      0.005945
Li	      4.45135      8.09686      7.37914        -0.000031      0.003638      0.002378
Li	      1.50195      0.90304      2.38841        -0.004019     -0.001529     -0.001432
Li	      1.49983      6.11459      2.63871        -0.015991     -0.004482      0.010853
Li	      4.36423      6.18436      2.62984        -0.016173     -0.009497      0.008934
Li	      4.40331      9.46741      5.02809        -0.001094      0.012131      0.003831
Li	      7.34792      4.59002      4.87605         0.003998     -0.013557      0.009016
Li	      5.73178      7.01178      4.95652        -0.003652      0.007837      0.000497
Li	      3.15205      6.96847      4.90197        -0.001962      0.009373      0.001194
Sc	      5.71831      8.73238      2.55611        -0.008832     -0.001277     -0.009744
Ti	      5.90734      5.02137     -0.04453        -0.001127     -0.003388      0.011417
V	      7.40475      9.49174      4.91232        -0.003281      0.007937     -0.001905
Cr	      4.41306      4.43683      4.93183        -0.003562     -0.015938     -0.006077
Fe	      2.81207      3.67122      2.46839        -0.002724     -0.001093     -0.009321
Co	      5.87189      3.60188      2.50367        -0.001388      0.003744      0.004270
Cu	      0.04845      0.04646     -0.01581        -0.000869     -0.017844      0.023579
Cu	      4.34630      7.82958      0.12816         0.001886      0.006659     -0.012151
Ni	      4.36349      2.67500      0.05007         0.003614      0.007222      0.003043
O	      2.93067      2.06070      1.41064        -0.006553     -0.018439      0.003074
O	      5.81177      2.06381      1.39290         0.016737     -0.002731     -0.006871
O	      1.45018      4.56767      1.28259         0.002289     -0.000417      0.002921
O	      4.46049      4.44357      1.26457         0.003149      0.017769      0.002370
O	      5.83132      7.11989      1.17336         0.008964      0.015970     -0.015509
O	      2.94934      7.15910      1.17889         0.003159      0.018041     -0.017761
O	      1.34368      2.74134      3.72613        -0.001646     -0.010685     -0.005012
O	      4.44763      2.64963      3.80768         0.005451     -0.006895     -0.006838
O	      5.81259      5.10590      3.67182         0.004637      0.002921     -0.000154
O	      2.97528      5.14105      3.72207        -0.007662      0.005339      0.006164
O	      4.41707      7.89498      3.72110         0.007787      0.005647      0.002566
O	      7.34180      8.09619      3.79983        -0.002071     -0.012728     -0.002134
O	      5.81508      3.43877      6.14799         0.004013     -0.006290      0.012042
O	      3.07187      3.51180      6.23072         0.009192     -0.005167      0.000086
O	      4.47546      6.00705      6.06532        -0.002874      0.010149     -0.005101
O	      7.40477      6.26490      6.26031         0.000733      0.015208     -0.003913
O	      2.83706      8.74184      6.14324         0.015395     -0.009196     -0.010442
O	      6.09060      8.68852      6.16587        -0.003665     -0.005294      0.000186
