# total energy = -222.90905978 eV
 
CRYSTAL
PRIMVEC
6.042046 -0.066043 0.080926 
1.395087 7.592359 -0.026609 
1.630213 2.479330 7.190141 
PRIMCOORD
36 1
Li	      3.18860      5.08593      7.16024         0.003965     -0.004963     -0.001305
Li	      2.94267      4.96498      0.02838        -0.007131     -0.009563     -0.002438
Li	      3.05591      8.33414      2.45068         0.006174     -0.003983     -0.003353
Li	      1.55848      5.79625      2.52721         0.007950      0.008802      0.000554
Li	      4.42495      5.88887      2.47966         0.005204     -0.004406      0.008148
Li	      4.60486      9.04091      4.92382         0.008296     -0.006557     -0.003728
Li	      7.54973      4.29749      4.74293        -0.000693      0.009436      0.004768
Li	      5.92122      6.62275      4.76669        -0.003192     -0.003435     -0.000182
Li	      3.25221      6.64187      4.79677        -0.000721     -0.003664     -0.000843
Sc	      0.13064      0.08390      0.05855         0.001481      0.009801      0.006255
Ti	      5.94224      4.84681      0.01827         0.004815     -0.015196      0.002904
V	      7.60915      9.09563      4.73588        -0.005889     -0.001458     -0.013597
Cr	      4.55853      4.19481      4.78873         0.005161      0.001784     -0.015526
Fe	      5.80994      8.33591      2.46146        -0.001993      0.003584      0.002517
Co	      6.02412      3.34512      2.43809         0.016781     -0.003862     -0.006437
Cu	      2.94808      3.35931      2.44231         0.010369      0.000663      0.002126
Cu	      4.37965      7.55437      0.04548        -0.016707      0.011855      0.008178
Ni	      6.05799      4.98118      7.18311        -0.003017      0.001596      0.014216
O	      3.03147      1.73179      1.32173         0.008494     -0.005264      0.013665
O	      5.88754      1.69987      1.29693         0.002226      0.003649     -0.018091
O	      1.24224      4.29747      1.15330        -0.010023     -0.003745     -0.013378
O	      4.56885      4.12010      1.30353         0.000492     -0.006112      0.006328
O	      5.88884      6.77025      1.16204         0.003440      0.002173      0.006552
O	      2.92517      6.75306      1.13227        -0.008958     -0.000420      0.000942
O	      1.35427      2.61005      3.45244        -0.009274      0.005057     -0.004344
O	      4.79594      2.46187      3.66058        -0.012498      0.005532     -0.009586
O	      5.99194      4.87018      3.58878        -0.003066      0.004145      0.004866
O	      3.09770      4.86737      3.63076        -0.000125     -0.011769      0.005118
O	      4.53680      7.61563      3.61353         0.010353     -0.001984     -0.013792
O	      7.45875      7.67035      3.66997        -0.002997     -0.000163     -0.006499
O	      6.06800      3.20665      5.96895         0.007381      0.002105      0.007684
O	      3.22917      3.25875      6.02015        -0.004605     -0.003727      0.008357
O	      4.61589      5.76177      5.98272        -0.010833     -0.001571     -0.005021
O	      7.58841      5.89269      6.09964         0.000267      0.003870      0.004981
O	      2.87318      8.43603      5.96494         0.004942      0.009232     -0.006623
O	      6.23805      8.34592      6.04593        -0.006069      0.008557      0.016586
