# total energy = -222.76083901 eV
 
CRYSTAL
PRIMVEC
5.976583 -0.004529 -0.013665 
1.456693 7.722493 -0.007803 
1.526330 2.574091 7.259868 
PRIMCOORD
36 1
Li	      1.53022      2.60520      0.01504         0.002825      0.004846     -0.000530
Li	      2.97544      5.20864      0.09229        -0.000572     -0.000414     -0.005860
Li	      3.01173      8.52993      2.40264        -0.001365     -0.007149     -0.003019
Li	      1.65968      5.99035      2.39313         0.010671     -0.008271     -0.001339
Li	      4.38750      5.99485      2.50099         0.008406     -0.007482      0.005869
Li	      4.48070      9.30464      4.84944        -0.000054     -0.004070      0.006769
Li	      1.51060      4.43586      4.81422         0.003983      0.002176     -0.004049
Li	      5.86755      6.79168      4.77868        -0.006989     -0.003321      0.004540
Li	      3.14030      6.77089      4.71816        -0.003092     -0.004791      0.000863
Sc	      5.76822      8.52839      2.40799        -0.004979     -0.000052     -0.006556
Ti	      5.95261      4.97414     -0.03774         0.010481     -0.002251     -0.014796
V	      7.54047      9.26722      4.73272         0.012064     -0.015700     -0.000534
Cr	      4.47050      4.33651      4.86124        -0.006847      0.018977     -0.005454
Fe	      0.10632      0.11115      0.01722        -0.001578      0.000568     -0.000400
Co	      6.00468      3.45233      2.39076         0.012534     -0.004021      0.002968
Cu	      2.90935      3.52385      2.42147         0.001391      0.013786      0.013903
Cu	      2.95292     -0.01367     -0.00016        -0.003308      0.005582      0.002013
Ni	      5.95120      5.18192      7.22488        -0.006432      0.007471     -0.004422
O	      2.97539      1.94825      1.32453         0.001403     -0.014615     -0.005292
O	      5.89960      1.73798      1.15715         0.004942      0.006020     -0.002901
O	      1.40151      4.43506      1.12486        -0.016083      0.006666     -0.009563
O	      4.54399      4.38663      1.08568         0.007215      0.002971      0.000591
O	      5.98741      6.92838      1.07289        -0.006037     -0.003040     -0.004231
O	      2.93335      6.96463      1.07178        -0.009774      0.007822     -0.007896
O	      1.31383      2.50248      3.79735        -0.003065      0.005793     -0.004391
O	      4.61872      2.48729      3.83475         0.005381      0.000719     -0.000475
O	      5.80098      4.94855      3.70508        -0.001026     -0.001652      0.005155
O	      3.03680      4.99621      3.67122         0.011504     -0.007155     -0.000675
O	      4.47705      7.70871      3.59159        -0.014417     -0.010844      0.007722
O	      7.45586      7.85059      3.66729         0.005048      0.003076      0.001312
O	      5.92122      3.38650      6.06080        -0.002761      0.005457      0.010519
O	      3.09800      3.38920      6.03559        -0.005437      0.002581      0.003973
O	      4.48335      5.81646      5.92612         0.001091     -0.013361     -0.001861
O	      7.48529      6.10305      6.09668         0.001391      0.014874      0.013391
O	      2.84144      8.70452      6.02306        -0.006298      0.003807     -0.003102
O	      6.21829      8.54971      5.95482        -0.000218     -0.005004      0.007757
