# total energy = -222.49367359 eV
 
CRYSTAL
PRIMVEC
5.940602 0.005945 0.000179 
1.461744 7.704630 0.018194 
1.537722 2.590443 7.237642 
PRIMCOORD
36 1
Li	      3.06709      5.13211      7.14795         0.006319      0.002014     -0.008568
Li	      4.50639      7.76877      7.15088         0.007692      0.002339      0.003080
Li	      3.00515      8.46652      2.42897        -0.004554      0.007472     -0.000563
Li	      1.51585      6.03688      2.51406         0.001066      0.005259      0.000581
Li	      4.40784      6.05284      2.51467         0.003306      0.000273     -0.000666
Li	      4.46382      9.30038      4.89494         0.005621     -0.009619      0.005433
Li	      7.43967      4.44401      4.83539        -0.003697      0.004792     -0.000366
Li	      5.81960      6.80180      4.78703         0.008253     -0.012539     -0.011733
Li	      3.19681      6.79812      4.77824        -0.006031      0.006559      0.001080
Sc	      2.88631      3.50309      2.41542        -0.001493     -0.005181      0.002302
Ti	      5.99212      4.98579     -0.04027         0.000691     -0.009147     -0.004857
V	      7.50328      9.33545      4.79007        -0.010406     -0.013783     -0.021236
Cr	      4.46654      4.32466      4.85318         0.001823      0.006021      0.006786
Fe	      5.83423      8.48144      2.44796         0.000823     -0.001695      0.005236
Co	      5.93083      3.48237      2.44144         0.002111      0.002740      0.007659
Cu	      0.09751      0.06022      0.02388        -0.004487      0.002606     -0.000759
Cu	      4.40767      7.70313      0.05970        -0.001009      0.004526      0.001048
Ni	      5.96299      5.17819      7.21126         0.002791      0.009243     -0.000094
O	      3.01337      1.70912      1.22278        -0.002092      0.006822     -0.001556
O	      5.80169      1.91296      1.37182         0.012827     -0.004191      0.006548
O	      1.45640      4.37965      1.16930         0.002662      0.000469     -0.002954
O	      4.51778      4.33560      1.20075         0.003373     -0.001489      0.004662
O	      6.00193      6.93839      1.13671         0.000112     -0.001144     -0.003550
O	      2.94742      6.93488      1.11915         0.005839     -0.004460     -0.000784
O	      1.36969      2.58802      3.62466        -0.007158     -0.000282     -0.006602
O	      4.47068      2.57016      3.69934        -0.006549     -0.001048      0.003306
O	      5.87875      4.99280      3.59031        -0.006895     -0.004101     -0.000347
O	      3.01325      5.06061      3.67014        -0.000678     -0.000163     -0.007521
O	      4.52977      7.74851      3.57676        -0.008950     -0.010546      0.007905
O	      7.35689      7.90313      3.70011        -0.003290      0.015377      0.008204
O	      5.94666      3.34413      5.97508        -0.007281     -0.003665     -0.001879
O	      3.07272      3.39255      6.10007        -0.006089     -0.007020      0.004297
O	      4.53886      5.90828      5.99081         0.001533     -0.003281     -0.007517
O	      7.45332      6.11419      6.13689         0.007242      0.012362      0.008802
O	      2.85388      8.50677      5.96739         0.001540     -0.003539     -0.001707
O	      6.14763      8.62913      6.13771         0.005035      0.008020      0.006327
