# total energy = -100.37496173 eV
 
CRYSTAL
PRIMVEC
0.000932 2.111747 2.109052 
2.108956 -2.111974 0.001157 
13.292665 11.204860 0.028044 
PRIMCOORD
16 1
Li	      2.36553      0.26749      1.84916         0.015984      0.022021     -0.022880
Li	      1.92352      1.93446      0.18020        -0.014168     -0.021851      0.020652
Li	      6.91470      4.82050     -2.70083        -0.012658     -0.010876      0.012981
Li	     10.67684      8.57229     -6.45872         0.014007      0.012544     -0.011636
Ti	      4.44847      2.34748     -2.33987        -0.006470     -0.005821      0.004974
Ti	     13.14222      8.93988     -8.92533         0.004654      0.003457     -0.002419
Ni	      8.78307      4.57495     -4.56769         0.009584      0.008518     -0.007734
Ni	      8.80771      6.70663     -6.70077        -0.007000     -0.007576      0.006957
O	     11.13156      9.03976     -9.02307         0.092281      0.095325     -0.094947
O	      8.79586      6.69671     -4.57971         0.000720     -0.001545      0.002286
O	     10.87303      6.66026     -6.65570         0.068957      0.073311     -0.077542
O	      6.71785      4.62136     -4.61295        -0.073864     -0.076126      0.075553
O	      4.56234      2.46326     -0.34471         0.122627      0.124884     -0.121644
O	      4.35042      4.35948     -2.24305        -0.093311     -0.095986      0.096420
O	     13.02949     10.93566     -8.81119        -0.120521     -0.122088      0.120182
O	      2.14434      0.04507     -0.03989        -0.000822      0.001810     -0.001205
