# total energy = -230.21743705 eV
 
CRYSTAL
PRIMVEC
6.059382 0.073067 -0.151634 
1.705646 7.616857 -0.156010 
1.332203 2.431276 7.207880 
PRIMCOORD
36 1
Li	     -0.00927     -0.00081      0.11848        -0.001157     -0.011920      0.004806
Li	      3.08922      5.10867      7.01311        -0.005558      0.008886     -0.001021
Li	      4.49886      7.55234      6.96326        -0.006768      0.009453     -0.004237
Li	      3.09782      8.28913      2.29169         0.009792      0.002116      0.002629
Li	      1.79173      6.02197      2.29804         0.012327      0.000967     -0.003469
Li	      4.58003      6.01913      2.19020         0.010154      0.014165      0.002412
Li	      4.62027      9.17222      4.46519         0.004619      0.004524     -0.008037
Li	      5.94420      6.75945      4.55393        -0.014117      0.005023      0.007151
Li	      3.33653      6.77041      4.55754         0.000676     -0.006428     -0.006209
Sc	      7.61327      9.20331      4.53578        -0.000288     -0.001189     -0.013717
Ti	      6.34461      5.16514     -0.14928         0.001643     -0.004197     -0.003753
V	      1.50648      4.21513      4.78345        -0.003263      0.001033     -0.009342
Cr	      5.94487      5.05379      7.04506        -0.000510     -0.016752      0.009172
Cr	      6.12703      8.41074      2.17336         0.017059     -0.004764     -0.007289
Fe	      4.46115      7.59528     -0.14119        -0.023449      0.011079      0.008997
Co	      6.07863      3.38720      2.24121         0.004154      0.001795      0.005516
Cu	      2.96911      3.39490      2.25610        -0.004087     -0.003539     -0.001029
Ni	      4.46174      4.24316      4.68570        -0.001136      0.000459     -0.007648
O	      3.14467      1.73931      0.99326         0.005688      0.009069     -0.002161
O	      5.88663      1.79950      1.20128         0.001002      0.003688     -0.004767
O	      1.54852      4.24286      1.12511         0.009168     -0.009718      0.008986
O	      4.86377      4.25904      1.00137        -0.003379     -0.009787      0.008829
O	      6.14087      6.80752      0.88684         0.009025     -0.000586      0.007835
O	      3.18828      6.81612      0.94285         0.014496      0.008678     -0.007355
O	      1.27431      2.53880      3.64863        -0.008666     -0.008443      0.008215
O	      4.39699      2.52653      3.42928        -0.008731     -0.001058      0.009514
O	      6.12603      4.87419      3.50637        -0.005392     -0.012745     -0.005779
O	      2.86820      4.90300      3.58059        -0.007634      0.006647     -0.001499
O	      4.70206      7.64092      3.30047         0.000972     -0.003584     -0.000021
O	      7.57414      7.65800      3.29028         0.006091     -0.002695      0.000631
O	      6.02222      3.43350      5.84507         0.006051      0.007934      0.004589
O	      2.83813      3.33822      5.85075         0.000285      0.000225     -0.007574
O	      4.57038      5.84679      5.87654        -0.007750     -0.001582     -0.002648
O	      7.43333      5.82973      5.89595        -0.001096     -0.006021      0.010724
O	      2.85774      8.22622      5.97593        -0.000060      0.008456      0.001641
O	      6.17979      8.46425      5.88747        -0.010163      0.000811     -0.004092
