# total energy = -222.51337535 eV
 
CRYSTAL
PRIMVEC
5.923199 0.001614 0.011493 
1.451974 7.679530 0.050099 
1.545098 2.608824 7.227507 
PRIMCOORD
36 1
Li	      3.05953      5.20147      7.13187        -0.000648     -0.008247      0.002471
Li	      4.50024      7.74024      7.10371        -0.015715     -0.021248      0.007943
Li	      3.04533      8.41723      2.48832        -0.010586      0.000947     -0.006529
Li	      7.39235      6.01383      2.57011        -0.005934     -0.004022     -0.006991
Li	      4.42473      6.09853      2.54662        -0.008795      0.002350      0.001868
Li	      4.47613      9.23456      4.93005         0.008284      0.007003      0.011281
Li	      7.42988      4.48885      4.83127         0.001433      0.018085      0.000075
Li	      5.81790      6.82858      4.78171         0.002128     -0.000975      0.005112
Li	      3.14816      6.78601      4.79297        -0.009009      0.007457      0.004562
Sc	      2.90116      3.45918      2.45361         0.002628     -0.004499     -0.003818
Ti	      5.91464      4.99909      0.03674         0.006787     -0.005060      0.001012
V	      7.45650      9.32833      4.79088         0.015912      0.005988      0.009392
Cr	      4.46880      4.38159      4.86686        -0.004124      0.022062      0.012117
Fe	      0.09908      0.05973      0.06730         0.017288      0.003777      0.012549
Co	      5.91791      3.46073      2.46137        -0.004015      0.013928     -0.014329
Cu	      4.38420      7.66364      0.11115        -0.015337     -0.000920      0.007789
Cu	      5.83482      8.47813      2.49060         0.008385      0.018995     -0.018476
Ni	      5.95963      5.17550      7.20493        -0.008122      0.004537      0.005167
O	      3.01175      1.65915      1.22909         0.002867     -0.008590      0.005967
O	      5.77488      1.71865      1.29706         0.002362     -0.002731      0.002610
O	      1.36040      4.23397      1.26209        -0.002883      0.004933     -0.007055
O	      4.53701      4.24551      1.26057        -0.000437     -0.004908      0.003232
O	      5.98259      6.74726      1.08401         0.007692      0.005299     -0.000252
O	      2.90102      6.85535      1.16073        -0.006864      0.000083     -0.008980
O	      1.33262      2.62448      3.57290         0.001294     -0.013726     -0.001046
O	      4.58703      2.74698      3.69011        -0.000642     -0.015170      0.003573
O	      5.89129      5.00665      3.60055         0.008787      0.001256     -0.013346
O	      3.01985      5.06610      3.66467        -0.002372      0.009422      0.013164
O	      4.51078      7.77191      3.63435        -0.007152     -0.007220      0.005803
O	      7.35331      7.88274      3.76366         0.004290      0.000539     -0.000966
O	      5.94952      3.37514      6.00155         0.007899     -0.004002     -0.007019
O	      3.03820      3.44489      6.06878         0.002660      0.007042      0.001989
O	      4.52480      5.96822      6.03137        -0.001676     -0.010894     -0.009797
O	      7.45240      6.15757      6.13490         0.001536     -0.014174     -0.004229
O	      2.87605      8.63623      6.05715        -0.002952     -0.000647     -0.016549
O	      6.09592      8.62328      6.13612         0.005030     -0.006673      0.001701
