# total energy = -222.79683461 eV
 
CRYSTAL
PRIMVEC
5.863311 0.020731 -0.011736 
1.461395 7.808430 0.155327 
1.509610 2.760265 7.323306 
PRIMCOORD
36 1
Li	      3.01529      5.41450      7.22964         0.006142     -0.002112      0.003894
Li	      4.45928      7.96080      7.30350        -0.003682     -0.017587     -0.015237
Li	      2.97002      8.61520      2.58560        -0.003123     -0.010309      0.005562
Li	      1.49162      6.19705      2.51518        -0.001553     -0.006394      0.003107
Li	      4.40997      6.24024      2.64072        -0.007856     -0.009208      0.006535
Li	      4.41892      9.43766      5.02116         0.000166     -0.004231      0.000644
Li	      1.49664      4.58036      4.98086         0.007088      0.006944     -0.002248
Li	      5.80240      7.02791      4.92615         0.001327     -0.001164     -0.004984
Li	      3.05843      6.92554      4.95288        -0.003324      0.004818     -0.011585
Sc	      2.88969      3.60880      2.55071        -0.007659      0.002496      0.002388
Ti	      5.94224      5.07620      0.05325         0.025894      0.007911      0.001541
V	      7.35257      9.58172      4.96490         0.011520      0.008555      0.004590
Cr	      4.42067      4.53032      4.96363        -0.001476      0.022441      0.017358
Fe	      4.34336      7.78830      0.23947        -0.003567     -0.006906     -0.000594
Co	      5.84459      3.58844      2.54034         0.009616     -0.009018      0.018529
Cu	      0.06278      0.02070     -0.01099         0.007419      0.005271     -0.005124
Cu	      4.38074      0.93863      2.47601        -0.003631      0.000599      0.007367
Ni	      5.90428      5.39224      7.34055        -0.009631      0.011441     -0.002600
O	      3.06093      1.69417      1.32798        -0.002725     -0.001294     -0.006923
O	      5.69309      1.95851      1.49416        -0.001766      0.002343      0.000873
O	      1.47909      4.36937      1.20943        -0.004417      0.008604     -0.011172
O	      4.47137      4.37080      1.27142        -0.013409      0.001117     -0.000327
O	      5.93210      6.85448      1.11298        -0.011930     -0.016627     -0.015641
O	      2.90984      7.02227      1.27589         0.013064      0.023306     -0.003172
O	      1.32812      2.69934      3.70282         0.006388     -0.006441     -0.008765
O	      4.37850      2.81358      3.91181        -0.009644     -0.015331      0.001066
O	      5.81862      5.12727      3.65423        -0.008254      0.000080     -0.003000
O	      2.97409      5.21980      3.75732        -0.006291      0.002822     -0.008836
O	      4.53345      7.94021      3.67576         0.004190     -0.001655     -0.001823
O	      7.21629      8.14531      3.81248         0.002807     -0.001442      0.007663
O	      5.88327      3.52418      6.10075        -0.000122     -0.007836      0.018535
O	      3.03467      3.66025      6.27145        -0.004108      0.005724      0.007234
O	      4.49234      6.12582      6.10929         0.012411     -0.017906     -0.008709
O	      7.35193      6.34572      6.26230        -0.001007      0.009546      0.014169
O	      2.82531      8.70554      6.08053        -0.005418      0.006465     -0.004358
O	      6.03761      8.88580      6.27288         0.006560      0.004977     -0.005959
