# total energy = -222.57258097 eV
 
CRYSTAL
PRIMVEC
6.017825 0.023625 -0.007002 
1.503068 7.666830 -0.067385 
1.556766 2.502022 7.237240 
PRIMCOORD
36 1
Li	      3.10529      5.09473      7.17563        -0.006860     -0.003395     -0.000997
Li	      4.53756      7.54652      7.18347        -0.019258     -0.005180     -0.006951
Li	      3.07457      8.42947      2.34974         0.004566      0.000867      0.005758
Li	      1.69103      5.89868      2.40315        -0.006296      0.001549      0.012829
Li	      4.44335      5.93379      2.49743         0.002407     -0.003168      0.004582
Li	      4.56698      9.24151      4.76934         0.000139      0.000110      0.007869
Li	      1.56718      4.35755      4.78859         0.005601      0.008419     -0.000431
Li	      5.90484      6.73031      4.75299         0.007938     -0.010417      0.004675
Li	      3.24702      6.69808      4.71782         0.001475      0.003517     -0.004392
Sc	      5.93697      8.45855      2.37677         0.011755      0.006716     -0.010884
Ti	      5.99656      4.96520     -0.00995         0.000529      0.005761      0.003583
V	      7.76335      9.18857      4.74385         0.007034      0.001134     -0.003606
Cr	      4.52623      4.25796      4.78953        -0.012304      0.000023      0.003029
Fe	      2.89967      0.01851      0.00275        -0.005224     -0.003822     -0.010145
Co	      6.01237      3.46313      2.41035         0.001318     -0.017063     -0.008759
Cu	      0.07193      0.10514     -0.00080        -0.006128      0.003211      0.005569
Cu	      2.93802      3.42764      2.36677         0.004182      0.007777     -0.011183
Ni	      6.03288      5.12324      7.16430         0.002992     -0.004580     -0.002334
O	      3.03699      1.78228      1.22372        -0.003586      0.009166      0.001429
O	      5.93893      1.94674      1.29762         0.004484     -0.008447     -0.003017
O	      1.37124      4.31382      1.20199         0.004444     -0.007570     -0.002204
O	      4.56835      4.41601      1.04966        -0.003459      0.004931      0.013672
O	      6.06428      6.90909      0.97504        -0.003511      0.001683      0.006036
O	      2.97924      6.90175      1.01039         0.001006      0.003108     -0.001025
O	      1.34702      2.44505      3.79646        -0.006889      0.000306      0.002042
O	      4.66984      2.55218      3.65243        -0.000031     -0.005889     -0.001063
O	      5.95372      4.94242      3.55601         0.005605      0.017800      0.013029
O	      3.06644      4.91823      3.56950        -0.007681      0.000671     -0.012809
O	      4.57268      7.66526      3.52061         0.005792     -0.000776      0.001252
O	      7.53561      7.79758      3.64519         0.007944      0.009830      0.011782
O	      5.99186      3.30793      5.99963         0.000577     -0.005146     -0.002325
O	      3.11190      3.32846      6.04927         0.005415      0.005676      0.001534
O	      4.57758      5.84762      5.94500        -0.002511     -0.002591      0.001925
O	      7.55667      6.06149      6.07149        -0.002846     -0.014676     -0.014873
O	      2.92216      8.43785      5.87943         0.006271     -0.002390      0.000652
O	      6.29390      8.58366      5.94931        -0.004891      0.002853     -0.004248
