# total energy = -222.57691810 eV
 
CRYSTAL
PRIMVEC
5.985980 -0.068161 0.102556 
1.377733 7.720291 0.060764 
1.639967 2.599478 7.298043 
PRIMCOORD
36 1
Li	      3.08420      5.24715      7.26598        -0.001487      0.001573     -0.003052
Li	      2.90916      5.09556      0.16558         0.003553     -0.000750     -0.003454
Li	      3.02993      8.47510      2.61235         0.003805     -0.008751      0.002808
Li	      1.47690      5.95552      2.39549        -0.005685      0.016632     -0.008067
Li	      4.47707      5.99751      2.67994         0.005503     -0.007185     -0.000544
Li	      4.50293      9.27336      4.91620         0.000720      0.001882      0.008793
Li	      1.59523      4.44277      4.87756         0.002577      0.000792     -0.000815
Li	      5.90825      6.84107      4.88011        -0.002451      0.003840      0.004880
Li	      3.14893      6.78128      4.83877         0.002274     -0.002811     -0.004203
Sc	      2.95391     -0.01323      0.15568         0.005273     -0.003594     -0.003205
Ti	      5.89932      4.92664      0.12353        -0.013956      0.008197      0.001361
V	      7.54540      9.30088      4.89084        -0.007754     -0.027414     -0.008455
Cr	      4.58923      4.36583      4.93776         0.003010     -0.010165      0.016235
Fe	      0.04856      0.08208      0.04535        -0.002895      0.006221     -0.005587
Co	      5.99937      3.36613      2.51816         0.000427     -0.006161     -0.009378
Cu	      2.97387      3.41433      2.51251        -0.001347      0.006367     -0.009346
Cu	      5.80228      8.50799      2.57202         0.013075      0.005636     -0.010885
Ni	      6.05958      5.16804      7.33959        -0.004175     -0.002334      0.002391
O	      3.00083      1.78400      1.36642        -0.010782      0.004448      0.004411
O	      5.79526      1.64069      1.32354        -0.011066      0.006982      0.004100
O	      1.32331      4.35745      1.10002        -0.006603      0.003817      0.001578
O	      4.45702      4.26821      1.23743        -0.004594      0.001341      0.007844
O	      5.92662      6.72911      1.17731         0.009730      0.002502      0.005093
O	      2.78009      6.91087      1.20076        -0.000998      0.007437      0.005618
O	      1.43367      2.54172      3.72445         0.001021      0.000769      0.003448
O	      4.71731      2.58061      4.07105         0.008767     -0.003939     -0.007525
O	      5.90988      4.97255      3.78308         0.008976      0.005295     -0.004878
O	      3.13962      4.93209      3.73108        -0.009734     -0.001987      0.000364
O	      4.51450      7.71612      3.70144        -0.009913     -0.007743      0.011603
O	      7.41007      7.87467      3.88670         0.014810      0.019500      0.013079
O	      6.10349      3.42429      6.16258         0.007123     -0.008829     -0.010809
O	      3.16742      3.45570      6.17701        -0.006350     -0.005405     -0.009180
O	      4.56095      5.84130      6.03646        -0.008018      0.004436      0.001291
O	      7.54598      6.11752      6.22230         0.009880     -0.016849     -0.000091
O	      2.83764      8.75271      6.06978         0.008160      0.006580      0.004488
O	      6.19727      8.62440      6.21463        -0.000874     -0.000332      0.000089
