# total energy = -229.99049890 eV
 
CRYSTAL
PRIMVEC
6.035298 -0.089142 0.109157 
1.490733 7.601511 -0.074112 
1.573877 2.412936 7.257183 
PRIMCOORD
36 1
Li	      0.08303     -0.00738      0.11497         0.003113      0.000368      0.002768
Li	      1.52623      2.59432      0.00398        -0.002124     -0.011501      0.001868
Li	      4.57351      7.48232      7.18928        -0.013877      0.000598      0.015025
Li	      3.08833      8.23013      2.36524        -0.003696     -0.014819      0.008785
Li	      1.70602      5.94132      2.40132        -0.009791     -0.007574      0.001509
Li	      4.28776      5.95058      2.33368        -0.015344     -0.001429     -0.001160
Li	      4.57235      9.05417      4.78106        -0.003667      0.000903      0.019304
Li	      5.96092      6.59676      4.78788         0.014476     -0.011479      0.000717
Li	      3.38260      6.62348      4.82580         0.013616      0.007695      0.018963
Sc	      7.67421      9.02229      4.79217         0.002304     -0.010908     -0.015410
Ti	      6.05539      5.03456      0.06743         0.015787     -0.006563     -0.005414
V	      1.67515      4.17983      4.86872        -0.009256     -0.009302      0.001323
Cr	      4.44975      2.52646      0.05196         0.005591      0.007184     -0.016229
Cr	      2.88089     -0.04370      0.04902        -0.027732     -0.003092      0.008910
Fe	      5.98099      8.22281      2.46969         0.010166      0.015241      0.010540
Co	      6.04193      3.26848      2.49554         0.020967      0.003595      0.004413
Cu	      3.00577      3.32929      2.40519         0.009953     -0.008637     -0.006490
Ni	      4.58084      4.14095      4.88212         0.005057      0.011670     -0.007416
O	      3.05646      1.64745      1.23111         0.011977      0.004159     -0.008976
O	      5.82896      1.76447      1.34032        -0.000500      0.008602     -0.018722
O	      1.18778      4.26814      1.17564         0.002612      0.016114     -0.001827
O	      4.47242      4.16077      1.20926        -0.003227      0.003043      0.003720
O	      5.85757      6.70604      1.07587        -0.009493      0.009086      0.000919
O	      3.00991      6.78189      1.05437         0.025771      0.006469     -0.011586
O	      1.65383      2.54452      3.68364         0.004748     -0.009919     -0.007345
O	      4.76023      2.43047      3.67151        -0.002309      0.013212      0.005386
O	      6.29928      4.69835      3.81582         0.010396     -0.004944     -0.007666
O	      3.04116      4.88730      3.66955         0.004223     -0.016452      0.018824
O	      4.60916      7.52357      3.56733         0.002270     -0.000806      0.000703
O	      7.48433      7.51015      3.53006        -0.025745      0.010570      0.006612
O	      6.09230      3.25749      6.13963        -0.001524      0.007808     -0.017245
O	      2.97490      3.29838      6.00156         0.001656     -0.020195      0.001864
O	      4.64047      5.71089      6.11633        -0.008827      0.013748     -0.000240
O	      7.50937      5.69478      6.16140        -0.005083     -0.003334      0.001913
O	      2.90351      8.20544      6.06842        -0.014308     -0.002775     -0.006710
O	      6.18108      8.32805      6.11102        -0.008175      0.003662     -0.001627
