# total energy = -229.77268751 eV
 
CRYSTAL
PRIMVEC
5.964022 -0.002593 0.001696 
1.582708 7.639636 -0.021428 
1.461978 2.517468 7.249495 
PRIMCOORD
36 1
Li	      0.01867      0.05522      0.12054         0.001665      0.007138      0.001252
Li	      3.03890      5.11355      7.19168        -0.000380      0.009892     -0.000327
Li	      4.52199      7.58907      7.15787         0.001379      0.001825     -0.000955
Li	      3.06870      8.30038      2.41377         0.000198      0.004703      0.000303
Li	      1.68543      6.07037      2.40631         0.002307     -0.012057     -0.003209
Li	      4.39116      6.07422      2.41536        -0.000126     -0.018710     -0.021279
Li	      4.55288      9.18288      4.74216         0.005047      0.002844     -0.006767
Li	      5.88166      6.77440      4.78774         0.010440     -0.010130     -0.001155
Li	      3.27595      6.81009      4.72023         0.013096     -0.020864      0.008482
Sc	      7.56844      9.24753      4.75314        -0.003198      0.005451     -0.013480
Ti	      6.14368      5.11076      0.03987        -0.002090     -0.019131     -0.005737
V	      1.55294      4.31926      4.87104         0.006181      0.016742      0.005898
Cr	      2.97447      3.40736      2.37692         0.003698      0.010680      0.016304
Cr	      6.00497      8.37887      2.39935        -0.002774      0.016055      0.012994
Fe	      4.34013      7.60123      0.02015         0.009958      0.008756     -0.007221
Co	      5.99529      3.35480      2.36841         0.000887     -0.004423      0.001895
Cu	      5.93141      5.07874      7.23044         0.009656      0.014079     -0.013796
Ni	      4.47650      4.29532      4.85852        -0.005891      0.006011     -0.006833
O	      3.03498      1.69339      1.20474        -0.008194     -0.000294      0.004836
O	      5.80504      1.70702      1.24352         0.005635     -0.002605      0.008512
O	      1.48834      4.26108      1.21215        -0.005964     -0.000623      0.001898
O	      4.47773      4.19934      1.18487        -0.008647     -0.001230      0.003014
O	      5.95653      6.73136      1.13410         0.000930     -0.002232     -0.002009
O	      3.06596      6.83057      1.10075        -0.013403      0.003641      0.006132
O	      1.57502      2.64636      3.67364         0.000152     -0.002066     -0.007470
O	      4.42752      2.51942      3.53915        -0.004417      0.004141     -0.008800
O	      6.16608      4.92766      3.78983        -0.010454      0.004013     -0.004760
O	      2.96570      4.97575      3.62996        -0.003980     -0.002849      0.003144
O	      4.60242      7.64574      3.54862         0.005227     -0.009802     -0.004642
O	      7.47340      7.68862      3.54306         0.003240      0.002676     -0.009973
O	      5.98357      3.41389      6.02227        -0.004381     -0.004416      0.009257
O	      2.90320      3.42101      5.97136        -0.000980     -0.006565      0.019963
O	      4.54548      5.87313      6.05698        -0.003576      0.006806     -0.002432
O	      7.44118      5.91327      6.14156        -0.001930      0.003472      0.018062
O	      2.88446      8.34113      6.10361        -0.000982     -0.009210     -0.000145
O	      6.15631      8.51154      6.11668         0.001671     -0.001720     -0.000955
