# total energy = -229.94718316 eV
 
CRYSTAL
PRIMVEC
5.967967 -0.079691 0.054436 
1.484254 7.639611 -0.042151 
1.494109 2.472571 7.229255 
PRIMCOORD
36 1
Li	      0.19446      0.01114      0.12983        -0.008796      0.006406      0.000957
Li	      2.95192      5.01469      7.20006         0.000086     -0.002709     -0.001192
Li	      4.50798      7.63492      7.14366        -0.004864     -0.004901      0.010572
Li	      3.03758      8.26797      2.36621         0.004135     -0.008896      0.000118
Li	      1.64226      6.06505      2.40666         0.007639      0.012766     -0.006816
Li	      4.31516      6.04166      2.41058         0.008574     -0.006260      0.022196
Li	      4.47123      9.07910      4.87299         0.008843     -0.006366      0.020243
Li	      5.85336      6.69250      4.75173         0.001481      0.001154      0.001293
Li	      3.23137      6.73695      4.78380         0.005577     -0.005838      0.005145
Sc	      7.49801      9.13391      4.79632         0.010617      0.012512     -0.006246
Ti	      6.08051      5.15027      0.14362         0.001288     -0.010346      0.005263
V	      1.52254      4.31831      4.81328         0.003127     -0.010509     -0.000737
Cr	      2.93070      3.36783      2.36673        -0.011144     -0.001675      0.004335
Cr	      5.93273      8.32509      2.40354         0.009018      0.003228     -0.005328
Fe	      5.89136      4.98990      7.19236        -0.002391      0.003368     -0.010384
Co	      5.94721      3.28753      2.41807         0.020793      0.007588      0.012773
Cu	      2.89173     -0.04401      0.06473        -0.015187      0.019540     -0.016864
Ni	      4.41507      4.21337      4.83529        -0.005065      0.010379      0.013905
O	      3.03467      1.66210      1.25470         0.002447     -0.010890     -0.008474
O	      5.80968      1.72148      1.27712        -0.005611     -0.012693     -0.004387
O	      1.37735      4.14605      1.25114        -0.004295     -0.006565     -0.009495
O	      4.56137      4.10658      1.29896        -0.006959     -0.000319     -0.002340
O	      6.08242      6.59769      1.27045         0.011920      0.003947      0.016334
O	      3.05200      6.77446      1.09578         0.004469     -0.004437      0.000193
O	      1.41526      2.65389      3.49498        -0.012351     -0.000581     -0.003133
O	      4.48238      2.50110      3.49229        -0.006721     -0.001665     -0.009686
O	      6.06011      4.76630      3.70286        -0.008499      0.000563      0.004476
O	      2.91777      4.95947      3.59183         0.002667      0.003846     -0.014551
O	      4.54607      7.62710      3.58645         0.011003      0.003482      0.005079
O	      7.38095      7.61609      3.56296        -0.009883      0.009825     -0.012215
O	      5.89503      3.31703      6.03348         0.002148      0.008067      0.001866
O	      2.72986      3.34420      5.78509        -0.002461     -0.012452     -0.020729
O	      4.50721      5.79728      6.09573        -0.000400     -0.002358      0.001129
O	      7.40044      5.77597      6.08071        -0.005311     -0.002653     -0.008498
O	      2.85810      8.33471      6.07369        -0.004986     -0.004917      0.003108
O	      6.14041      8.35627      6.17621        -0.000908      0.010361      0.012092
