# total energy = -230.13224857 eV
 
CRYSTAL
PRIMVEC
5.899930 0.002992 -0.008560 
1.573269 7.800391 0.151406 
1.436779 2.737723 7.311545 
PRIMCOORD
36 1
Li	      0.04399      0.02430      0.14218        -0.007864      0.002805      0.002546
Li	      3.01434      5.41417      7.27595         0.009879     -0.003416      0.005216
Li	      4.46287      7.98538      7.34910         0.002053     -0.003365      0.005342
Li	      3.03605      8.50905      2.49503        -0.012372     -0.000775     -0.002028
Li	      1.62898      6.30667      2.53268        -0.010103     -0.000569      0.007761
Li	      4.37721      6.30222      2.54229        -0.005529      0.001266      0.005439
Li	      4.50404      9.46327      4.94168        -0.000064     -0.006853     -0.005878
Li	      5.86185      6.99704      4.89621         0.003536     -0.003842     -0.006735
Li	      3.25328      7.01937      4.98028         0.007384      0.002919     -0.008540
Sc	      7.44022      9.58382      4.91654         0.003683      0.005728     -0.007979
Ti	      6.05797      5.19949      0.11554         0.007587      0.005239      0.005352
V	      1.54636      4.52480      4.99085        -0.000564     -0.000352     -0.023109
Cr	      4.41924      2.58545      0.04785        -0.015963      0.000581     -0.000894
Cr	      4.41752      7.74292      0.16277         0.011833      0.006236      0.006186
Fe	      2.95597      3.60606      2.50844        -0.006002     -0.002606      0.004715
Co	      5.92362      3.50168      2.47889         0.004928      0.002901     -0.007631
Cu	      5.93862      8.66121      2.59802        -0.023805     -0.003241     -0.002247
Ni	      4.42770      4.53611      4.96019         0.005417      0.007418     -0.004547
O	      3.03953      1.67926      1.27612         0.004705      0.003096     -0.004031
O	      5.69411      1.73790      1.38234         0.006161     -0.000095      0.000258
O	      1.47967      4.29287      1.26593        -0.007745      0.005077      0.007456
O	      4.42941      4.24089      1.21107        -0.001528      0.001643     -0.004135
O	      5.88451      6.72060      1.15873        -0.004018     -0.003600     -0.003187
O	      3.05877      6.98250      1.24040         0.001684     -0.001366      0.003401
O	      1.55013      2.82540      3.78590         0.003265      0.010647     -0.000674
O	      4.38748      2.89212      3.73862        -0.002369      0.002389      0.003064
O	      6.10930      5.15187      3.87812         0.011451     -0.004627      0.001869
O	      2.91786      5.23394      3.73171        -0.009936      0.000288      0.007687
O	      4.60188      7.92180      3.68019        -0.000764     -0.000126     -0.004018
O	      7.30965      7.98259      3.68855         0.005148      0.005252      0.000835
O	      5.90479      3.61713      6.17396         0.004567     -0.010076     -0.003601
O	      2.86403      3.67191      6.12281         0.006240     -0.010262      0.006813
O	      4.50281      6.11866      6.18453         0.003025     -0.002345      0.000159
O	      7.32648      6.11053      6.23976         0.002551     -0.003969      0.005132
O	      2.84000      8.59850      6.20462         0.001593      0.002306      0.013972
O	      6.02925      8.85697      6.28531         0.001938     -0.004306     -0.003967
