# total energy = -229.62260876 eV
 
CRYSTAL
PRIMVEC
5.965189 -0.004646 0.011070 
1.580315 7.640992 -0.024513 
1.472459 2.512436 7.258222 
PRIMCOORD
36 1
Li	      0.06942      0.05113      0.13385        -0.008344      0.016287      0.000840
Li	      3.04266      5.10618      7.20857         0.006442     -0.000146      0.013024
Li	      4.53012      7.64204      7.18042         0.003729     -0.018177     -0.002554
Li	      3.07977      8.27928      2.38837        -0.002440      0.009013      0.009918
Li	      1.71513      6.07581      2.38387        -0.000450      0.010783      0.002339
Li	      4.37627      6.09520      2.37441         0.011864     -0.008685     -0.002789
Li	      4.55938      9.17624      4.75894         0.000946     -0.011696     -0.014945
Li	      5.88417      6.74952      4.78897        -0.003098      0.002408     -0.013295
Li	      3.29515      6.79008      4.72883         0.018278     -0.003905     -0.003828
Sc	      7.57581      9.22867      4.74930         0.007114      0.007581     -0.017241
Ti	      6.12650      5.09376      0.01562        -0.000399     -0.004520      0.005648
V	      1.56832      4.29595      4.89439        -0.015373     -0.018515     -0.002629
Cr	      4.44238      7.62852     -0.01086         0.002498      0.003860      0.007483
Cr	      5.99847      8.38383      2.41147         0.000795     -0.006563     -0.000657
Fe	      2.96487      3.42298      2.37063        -0.010601     -0.015055     -0.018137
Co	      5.99559      3.35414      2.39125        -0.004979      0.007831      0.010436
Cu	      5.92934      5.07901      7.25315        -0.009384     -0.000101      0.020615
Ni	      4.47760      4.28938      4.86799         0.010421     -0.015456     -0.000501
O	      3.01143      1.69189      1.22662        -0.000994     -0.007876     -0.009126
O	      5.79088      1.71932      1.25324         0.003859      0.004317     -0.000568
O	      1.46719      4.27729      1.22026        -0.000909      0.005623     -0.011433
O	      4.47873      4.20702      1.20053        -0.003992      0.013067      0.000619
O	      5.92264      6.75738      1.11226        -0.006810      0.006286     -0.002942
O	      3.09503      6.84235      1.07196        -0.000138      0.000630     -0.009679
O	      1.57418      2.63280      3.69586        -0.011632     -0.000943      0.025503
O	      4.44606      2.50827      3.56628         0.012501      0.001535      0.007216
O	      6.17918      4.90646      3.82855        -0.006101      0.003840      0.010515
O	      2.96638      4.98062      3.65211         0.004991      0.012283      0.000123
O	      4.60831      7.63562      3.55793        -0.007094     -0.004690      0.007290
O	      7.46975      7.67632      3.53520         0.008553     -0.007703     -0.002228
O	      5.95718      3.38238      6.05582        -0.008567      0.003237      0.003819
O	      2.90507      3.41440      5.99905         0.002804      0.008578     -0.012024
O	      4.54986      5.86487      6.07606         0.005537      0.001554      0.012504
O	      7.44649      5.90902      6.16915        -0.002785     -0.004068     -0.015055
O	      2.88445      8.32150      6.09939         0.008572      0.006786     -0.001159
O	      6.15240      8.49782      6.13097        -0.004814      0.002601      0.002899
