# total energy = -229.87728339 eV
 
CRYSTAL
PRIMVEC
6.001718 -0.091014 0.079740 
1.478905 7.641953 -0.035451 
1.528473 2.471171 7.252404 
PRIMCOORD
36 1
Li	      0.18257     -0.03580      0.10582         0.000096      0.010309      0.000401
Li	      3.03766      5.02782      7.21967         0.002608     -0.003180     -0.005371
Li	      4.57824      7.60967      7.19710        -0.015717     -0.001137      0.010487
Li	      3.04919      8.26223      2.39087         0.000398      0.002469      0.001824
Li	      1.62942      6.03143      2.41564         0.003329      0.007597      0.001732
Li	      4.28769      6.00294      2.38756         0.003457     -0.001331      0.006298
Li	      4.44142      9.15565      4.80768        -0.001916     -0.000220      0.007844
Li	      5.89860      6.68815      4.82523        -0.000855     -0.004299      0.004100
Li	      3.28596      6.72457      4.83197         0.001709      0.005591      0.005607
Sc	      7.54336      9.15263      4.83411        -0.007126     -0.007258     -0.011881
Ti	      6.07047      5.11528      0.12650        -0.007920     -0.007276      0.003365
V	      1.57777      4.29933      4.86544         0.006304      0.006062     -0.005355
Cr	      4.42655      2.52208      0.01465         0.021659      0.010038      0.012769
Cr	      2.95658      3.36423      2.39727         0.008892     -0.008221      0.002373
Fe	      5.93547      8.22452      2.44793         0.015541     -0.007297     -0.004304
Co	      5.99200      3.27339      2.45862        -0.002539     -0.015353     -0.014534
Cu	      2.89712     -0.03500      0.06657         0.008195      0.004041      0.014115
Ni	      4.47478      4.21927      4.87185        -0.012472      0.001441      0.000022
O	      3.05421      1.68043      1.24835        -0.003294     -0.008988     -0.016115
O	      5.79783      1.74916      1.32042        -0.006924     -0.004220     -0.010494
O	      1.38942      4.13054      1.25830         0.000626      0.000499     -0.012996
O	      4.46635      4.14935      1.21141        -0.008688     -0.004175     -0.009214
O	      6.10925      6.55352      1.27810        -0.002845      0.009323      0.010388
O	      3.04474      6.80135      1.10798         0.006626      0.006352     -0.008902
O	      1.56449      2.59129      3.63976         0.003253     -0.015358      0.006340
O	      4.50910      2.53895      3.55396        -0.005438      0.002817      0.022189
O	      6.15128      4.73803      3.73431         0.001520      0.003854      0.002562
O	      2.95039      4.96266      3.62204        -0.005621      0.002001      0.003406
O	      4.57345      7.59659      3.59475        -0.010681      0.012864      0.015172
O	      7.42426      7.62829      3.59023        -0.004446      0.006706      0.002784
O	      5.96505      3.33097      6.09458        -0.008585     -0.007209     -0.004042
O	      2.79003      3.40037      5.88467        -0.004086     -0.013269     -0.004252
O	      4.57155      5.78922      6.10186        -0.013680      0.001244     -0.004376
O	      7.42932      5.76748      6.13794         0.011521      0.009257     -0.021400
O	      2.86593      8.32720      6.08402         0.022997     -0.000543      0.006122
O	      6.19010      8.36745      6.20584         0.004102      0.006872     -0.006667
