# total energy = -101.96997107 eV
 
CRYSTAL
PRIMVEC
-0.007484 2.105263 2.163140 
6.188813 0.024908 -2.213511 
-1.985702 6.263650 -4.264746 
PRIMCOORD
16 1
Li	     -1.81051      6.23201     -4.28180         0.030253      0.020882      0.003590
Li	      1.89216      2.13889     -0.00058        -0.036037     -0.018624     -0.002534
Li	      0.11935      4.27069     -0.11850        -0.001532     -0.018768      0.022348
Li	     -0.04401      6.20650     -1.99936        -0.001577      0.016242     -0.019652
Ti	      4.24689      2.04154     -2.32204         0.474872      0.011111     -0.062542
Ti	      2.02332      6.35285     -4.17489        -0.455422     -0.006114      0.058807
Ni	      1.97438      4.10541     -2.05207         0.029926      0.078627     -0.083867
Ni	      4.29710      4.29194     -4.44287        -0.028847     -0.080977      0.085524
O	      4.09899      4.09175     -2.08912         0.095713     -0.080664      0.144844
O	      4.12498      2.11911     -0.03298        -0.006880      0.001111     -0.001941
O	      2.16399      6.41015     -2.24402        -0.092596      0.075579     -0.135073
O	      2.22062      2.11634     -2.20418         0.068850     -0.104274      0.083480
O	      4.05073      6.28058     -4.29026        -0.068767      0.108815     -0.090573
O	      0.22597      6.30279     -4.32806         0.480055     -0.006539      0.041673
O	      0.04129      4.18585     -2.14071        -0.000910      0.002854     -0.002685
O	     -0.14413      2.06990      0.04608        -0.487099      0.000738     -0.041399
