# total energy = -230.29320167 eV
 
CRYSTAL
PRIMVEC
5.902964 -0.003819 -0.005395 
1.565636 7.794427 0.148990 
1.438704 2.731637 7.308580 
PRIMCOORD
36 1
Li	      0.00345      0.02902      0.13810        -0.006657      0.006768      0.006266
Li	      3.01534      5.40618      7.26461        -0.001349     -0.005830      0.005261
Li	      4.46430      7.90870      7.31017         0.002341     -0.009098     -0.008715
Li	      3.03011      8.52452      2.52117        -0.018885      0.000111     -0.005436
Li	      1.60519      6.28410      2.54411        -0.007069      0.003627      0.006513
Li	      4.39487      6.26661      2.56019        -0.004304      0.007221      0.005470
Li	      4.50182      9.45786      4.93054        -0.008916     -0.010843      0.002111
Li	      5.86592      7.00703      4.90561         0.006577     -0.007298     -0.006904
Li	      3.24244      7.01836      4.97676         0.008322      0.002912      0.001551
Sc	      5.86869      1.78256      4.77533         0.002061     -0.011654      0.003979
Ti	      6.07417      5.19249      0.13414         0.005332      0.008889     -0.007033
V	      1.54284      4.52754      4.96583        -0.006700      0.011247     -0.009117
Cr	      4.42809      2.58672      0.04472        -0.015584     -0.003452     -0.006789
Cr	      2.96153      3.55622      2.49443         0.000769     -0.015515     -0.002237
Fe	      4.33533      7.69932      0.17216         0.010551     -0.011812     -0.004427
Co	      5.92491      3.49325      2.47568         0.006736      0.001879      0.000262
Cu	      5.93807      8.65368      2.59653         0.021915     -0.013807      0.007705
Ni	      4.42909      4.52589      4.96226         0.007684      0.014485     -0.000436
O	      3.05055      1.74812      1.32271        -0.004954      0.022758     -0.011075
O	      5.70063      1.72885      1.37977         0.001903      0.015135     -0.005927
O	      1.48124      4.28524      1.25761         0.014015      0.001707      0.008720
O	      4.43175      4.23846      1.21076        -0.005033     -0.002663     -0.001765
O	      5.90210      6.70610      1.16853        -0.002048      0.005374      0.000638
O	      3.03857      6.98785      1.26410         0.009409      0.004669      0.002136
O	      1.55411      2.82518      3.77839         0.011157      0.012220     -0.004780
O	      4.39049      2.88786      3.74066        -0.007274      0.003089      0.002518
O	      6.10462      5.15043      3.86461         0.012165     -0.008616      0.007020
O	      2.91576      5.18990      3.70444        -0.005447     -0.005203      0.012293
O	      4.59982      7.91041      3.67278        -0.027037     -0.005574      0.010943
O	      7.31461      7.97253      3.68844        -0.011854      0.013789     -0.009688
O	      5.90687      3.61579      6.17158         0.004779     -0.002234      0.000101
O	      2.86438      3.66576      6.11190         0.002923     -0.010119      0.007842
O	      4.50510      6.11666      6.18068         0.005633     -0.009766     -0.006500
O	      7.33883      6.09402      6.22520        -0.003348     -0.012235     -0.000355
O	      2.84516      8.60170      6.20593        -0.001241      0.006718      0.000390
O	      6.03316      8.82400      6.26721         0.003429      0.003121     -0.000537
