# total energy = -226.92325425 eV
 
CRYSTAL
PRIMVEC
5.897506 0.006967 -0.010025 
1.577654 7.823163 0.160921 
1.436063 2.755161 7.317674 
PRIMCOORD
36 1
Li	      0.03985      0.03817      0.14742        -0.002788      0.004134      0.001356
Li	      3.00035      5.42848      7.29548         0.003394     -0.002718      0.000318
Li	      4.46604      8.05304      7.38237         0.003824      0.009064      0.010315
Li	      3.03927      8.53094      2.50830        -0.001141     -0.001294     -0.003083
Li	      1.63298      6.33345      2.54615        -0.003692     -0.000394      0.005297
Li	      4.38121      6.31577      2.54898        -0.005136      0.004810     -0.000790
Li	      4.50564      9.48482      4.95497         0.000865     -0.007460     -0.000271
Li	      5.87288      7.02606      4.89102         0.003801     -0.004569     -0.003146
Li	      3.22551      7.04251      4.98846        -0.000794     -0.003972     -0.000057
Sc	      7.44528      9.61925      4.92768         0.000164     -0.007875     -0.004832
Ti	      6.06811      5.22926      0.12593        -0.008183      0.023336      0.013163
V	      1.54787      4.53204      4.99397         0.005003     -0.011611     -0.012914
Cr	      4.42848      7.77111      0.17211        -0.004767     -0.013335      0.010953
Fe	      5.83617      5.38440      7.34055        -0.012124      0.000353     -0.003197
Fe	      2.96015      3.61936      2.51186         0.000316      0.004937      0.014125
Co	      5.92183      3.51022      2.47319         0.004406      0.001001      0.002360
Cu	      5.93464      8.68839      2.61386        -0.003877      0.003555     -0.005590
Ni	      4.43046      4.54350      4.96162        -0.003824      0.010806     -0.006160
O	      3.03217      1.67762      1.28732         0.003662      0.002121     -0.000463
O	      5.67221      1.75031      1.37759        -0.000352      0.003255     -0.001031
O	      1.48559      4.30665      1.27325        -0.001363      0.001441     -0.002172
O	      4.43521      4.29027      1.23240        -0.002195     -0.003237     -0.010303
O	      5.89697      6.75059      1.16724         0.002673     -0.017460     -0.011934
O	      3.06393      7.01130      1.24819         0.011931      0.005304     -0.003783
O	      1.55153      2.84057      3.78966        -0.002204      0.004123     -0.003849
O	      4.38814      2.90299      3.73913        -0.000056      0.003696     -0.003539
O	      6.10940      5.17465      3.88867         0.003763     -0.005559     -0.001324
O	      2.91845      5.24663      3.73944        -0.001433     -0.003270      0.005253
O	      4.60026      7.94337      3.69626        -0.007416     -0.004972      0.001090
O	      7.31512      8.01144      3.70046        -0.001155      0.010030      0.001015
O	      5.90885      3.61399      6.15842         0.003319     -0.001088      0.000967
O	      2.86885      3.69004      6.12936         0.003872     -0.001522      0.001922
O	      4.49335      6.13691      6.19393         0.001844     -0.002485      0.001621
O	      7.34829      6.14422      6.24329         0.001368      0.004085      0.000855
O	      2.85106      8.63437      6.22103        -0.001161     -0.003066      0.002517
O	      6.03495      8.89438      6.30155         0.009456     -0.000165      0.005311
