# total energy = -226.55634499 eV
 
CRYSTAL
PRIMVEC
5.871905 -0.001220 -0.000147 
1.561019 7.841183 0.197622 
1.438580 2.792198 7.315054 
PRIMCOORD
36 1
Li	     -0.00068      0.04433      0.14569         0.005781     -0.004148     -0.004058
Li	      2.98607      5.45110      7.32442         0.003082     -0.005768     -0.001649
Li	      4.45456      8.02577      7.35857         0.002504     -0.006270     -0.004036
Li	      2.99849      8.59441      2.55079        -0.002262     -0.006299      0.005336
Li	      1.59836      6.35204      2.59741         0.000464      0.010046     -0.004382
Li	      4.37543      6.33030      2.62836         0.002916      0.004610      0.000070
Li	      4.46053      9.49143      5.01324        -0.005738      0.010949      0.000724
Li	      5.85574      7.07774      4.93610        -0.013439      0.012707      0.007780
Li	      3.18537      7.08270      5.04122         0.011712     -0.003822     -0.000031
Sc	      5.84883      1.81963      4.76581        -0.004394     -0.001529     -0.010779
Ti	      6.04384      5.24033      0.18401        -0.006794      0.000654     -0.009486
V	      1.53254      4.59172      4.96715         0.013455      0.003196      0.017253
Cr	      2.95951      3.59212      2.50719         0.005065      0.005586     -0.008879
Fe	      5.84556      5.39949      7.35131         0.002930      0.004986      0.017058
Fe	      4.32444      7.74686      0.21181        -0.002585      0.000558     -0.001904
Co	      5.90277      3.54925      2.48304        -0.000739      0.001530      0.004961
Cu	      5.89781      8.71728      2.65538         0.004619      0.001076     -0.007765
Ni	      4.41536      4.58315      4.97922         0.000388     -0.004057     -0.000229
O	      3.02301      1.77008      1.35179         0.004012     -0.004018     -0.006099
O	      5.66096      1.70565      1.36572        -0.010730     -0.006133     -0.006858
O	      1.46233      4.29953      1.30800        -0.010550      0.003872     -0.001794
O	      4.47580      4.27252      1.27097        -0.008557     -0.005734     -0.000604
O	      5.88663      6.75283      1.21163         0.004120      0.003996      0.004287
O	      3.03369      7.02850      1.30679         0.006574     -0.008391     -0.001623
O	      1.51568      2.90210      3.74669        -0.008019     -0.011728      0.001886
O	      4.42280      2.96123      3.71347         0.010139      0.001924      0.001270
O	      6.07985      5.26705      3.92296         0.001305     -0.009040     -0.009860
O	      2.91661      5.23531      3.71584        -0.003159     -0.007601      0.004366
O	      4.55537      7.98635      3.74093         0.008113      0.005175     -0.001289
O	      7.28065      8.04619      3.74538         0.002179      0.000840      0.010026
O	      5.88027      3.64917      6.16343         0.000904      0.002378      0.009224
O	      2.86489      3.70231      6.10446        -0.007920      0.005357     -0.001399
O	      4.48231      6.18058      6.23458        -0.006716     -0.008026     -0.018724
O	      7.34991      6.16890      6.25153        -0.006002      0.008518      0.006252
O	      2.85513      8.69319      6.24857         0.000047      0.001835      0.018386
O	      6.00982      8.91072      6.31989         0.007294      0.002770     -0.007430
