# total energy = -226.59520886 eV
 
CRYSTAL
PRIMVEC
6.015050 -0.073930 0.085301 
1.503888 7.639046 -0.023334 
1.545721 2.483026 7.266624 
PRIMCOORD
36 1
Li	      0.16042      0.01575      0.12734         0.007370     -0.002101     -0.009653
Li	      3.05407      5.07965      7.16473        -0.004341     -0.012687     -0.003597
Li	      4.58895      7.63853      7.24168         0.000030      0.008149      0.000195
Li	      3.02679      8.32156      2.30928         0.008086      0.006854      0.012600
Li	      1.67308      6.03641      2.39065         0.003297      0.005127      0.000698
Li	      4.33200      6.00853      2.36306         0.014137     -0.005533      0.015543
Li	      4.49888      9.22337      4.83900        -0.003712      0.005073     -0.006513
Li	      5.99067      6.65715      4.88427        -0.003683     -0.009967     -0.003834
Li	      3.33378      6.71718      4.90004        -0.005807     -0.002332      0.004601
Sc	      7.57513      9.19407      4.89674         0.003872      0.004359      0.008269
Ti	      6.13741      5.12847      0.18303         0.000848      0.007305     -0.005502
V	      1.58262      4.31657      4.85855        -0.006491     -0.003827     -0.011907
Cr	      6.00187      8.28814      2.51696        -0.017331     -0.005070      0.006072
Fe	      5.97515      5.01081      7.27300        -0.018980     -0.002099     -0.011401
Fe	      2.94857      3.38804      2.38430         0.002818      0.001558     -0.006222
Co	      6.02476      3.28643      2.46046         0.004247      0.005359      0.012623
Cu	      4.39689      7.58851      0.03523         0.002986      0.013221      0.017507
Ni	      4.49374      4.20815      4.87918         0.010542      0.006510     -0.001317
O	      3.09038      1.64668      1.32069        -0.004537      0.010645      0.003746
O	      5.73430      1.59067      1.31886         0.013825     -0.002005     -0.004882
O	      1.47601      4.19501      1.18353         0.010116     -0.009683     -0.011686
O	      4.52064      4.15850      1.24631        -0.020616      0.009400      0.002398
O	      6.11397      6.58832      1.34031         0.008403     -0.010396      0.006870
O	      3.06278      6.80642      1.12036         0.006409     -0.006635     -0.006361
O	      1.56125      2.59731      3.64967        -0.014707      0.004108      0.005048
O	      4.48354      2.40095      3.63863        -0.014675      0.007475     -0.010092
O	      6.19480      4.83828      3.85498        -0.004872     -0.011640      0.003431
O	      2.99745      4.97805      3.63282         0.006837     -0.005986     -0.001007
O	      4.64704      7.62417      3.54332         0.007506      0.014120     -0.007869
O	      7.41683      7.65553      3.54992        -0.000955      0.007663      0.004794
O	      5.98101      3.33110      6.09296        -0.000302      0.006218     -0.003677
O	      2.81475      3.42921      5.90544         0.002835     -0.014279      0.000626
O	      4.60663      5.79724      6.11623         0.000446      0.000209     -0.004412
O	      7.51267      5.80574      6.19827         0.004856     -0.000806      0.002892
O	      2.90567      8.34189      6.08912        -0.006271     -0.009544      0.004995
O	      6.23459      8.36316      6.23110         0.007814     -0.008764     -0.002978
