# total energy = -226.49315162 eV
 
CRYSTAL
PRIMVEC
5.999845 -0.051386 0.080595 
1.529735 7.645523 -0.032751 
1.545450 2.480786 7.286251 
PRIMCOORD
36 1
Li	      0.06608      0.05224      0.10450         0.001729     -0.005452      0.001297
Li	      3.06115      5.07241      7.28700        -0.005731     -0.006296      0.007664
Li	      4.54264      7.60544      7.24981        -0.005018     -0.015332      0.008455
Li	      3.10815      8.29730      2.41979         0.010309      0.000444     -0.010829
Li	      1.73111      6.00918      2.41973        -0.016619     -0.007694      0.006203
Li	      4.33600      6.00267      2.36629         0.003810     -0.006190      0.010620
Li	      4.60637      9.18357      4.80005         0.008186      0.003916      0.004094
Li	      5.96613      6.68954      4.82556         0.010074      0.004872      0.001577
Li	      3.32153      6.74879      4.79552         0.002343      0.004563      0.014115
Sc	      7.62992      9.16441      4.82900        -0.010320      0.000733     -0.023512
Ti	      6.11662      5.10279      0.09990        -0.002671     -0.028344      0.007630
V	      1.62755      4.26592      4.88796        -0.004399      0.012842     -0.026103
Cr	      4.38970      7.60895      0.00158        -0.001114      0.007626      0.002175
Fe	      4.42795      2.56644      0.05429         0.003565      0.018440     -0.002357
Fe	      5.99502      8.32376      2.50524        -0.011292      0.009943      0.009145
Co	      6.02811      3.32691      2.47931        -0.006895      0.012937     -0.012410
Cu	      3.00097      3.38290      2.43103         0.011607      0.004775      0.000955
Ni	      4.53875      4.19696      4.90126         0.003196     -0.000603     -0.003928
O	      3.02496      1.66531      1.21479         0.000108     -0.019870      0.007181
O	      5.74470      1.69782      1.25240        -0.004186     -0.003560     -0.001268
O	      1.33364      4.35595      1.16251        -0.007571      0.008053     -0.010453
O	      4.48217      4.20066      1.23464         0.005784     -0.005505     -0.000827
O	      5.86906      6.75227      1.11202         0.000957      0.000887     -0.000674
O	      3.05093      6.85536      1.08327        -0.012560     -0.010578     -0.001589
O	      1.61433      2.61833      3.69596        -0.000720     -0.006843      0.005025
O	      4.61605      2.44325      3.71704         0.000886      0.006939      0.000720
O	      6.26331      4.86092      3.91369         0.012595     -0.000538     -0.007700
O	      3.02767      4.96060      3.70956        -0.001057     -0.002156     -0.001357
O	      4.61963      7.59205      3.58676         0.004419     -0.002598      0.003741
O	      7.49903      7.61785      3.56306        -0.005512      0.020337      0.004851
O	      6.03845      3.32595      6.13949         0.001606      0.000100     -0.001325
O	      2.96078      3.36941      6.03370        -0.002705     -0.015635      0.006541
O	      4.64736      5.78039      6.16968        -0.008709      0.007919      0.003458
O	      7.49771      5.79117      6.22678         0.008502      0.005370      0.002847
O	      2.91837      8.29244      6.09673         0.009607      0.002954     -0.006341
O	      6.16284      8.45601      6.17115         0.007796      0.003546      0.002380
