# total energy = -102.30924594 eV
 
CRYSTAL
PRIMVEC
0.000046 2.136847 2.136506 
5.958943 4.283143 -6.418762 
-3.978318 2.143506 -2.143330 
PRIMCOORD
16 1
Li	      0.09542      0.13280     -0.13523         0.009878      0.010390     -0.006914
Li	     -2.08630      4.14781     -2.01274        -0.008468     -0.010221      0.008602
Li	      1.98500      6.41999     -4.28305         0.008582      0.014638     -0.015663
Li	      1.98447      4.28131     -2.14488        -0.008626     -0.014211      0.014737
Ti	     -0.04897      4.23365     -4.23718        -0.372742     -0.121398      0.117392
Ti	      4.01816      4.32683     -4.33101         0.378911      0.119250     -0.121891
Ni	     -2.03820      2.24486     -0.10938        -0.104726     -0.085949      0.096153
Ni	      0.04781      2.03673     -2.03783         0.102417      0.085158     -0.094732
O	     -0.00449      6.42492     -4.28298        -0.000302     -0.002768     -0.001210
O	      0.02073      4.42895     -2.29239         0.004074      0.170428     -0.169525
O	      1.98465      4.28254     -4.28180         0.000182     -0.000608     -0.000590
O	     -0.03813      2.18268     -0.04767         0.119682     -0.129983      0.135229
O	      2.10204      2.17806     -2.17714         0.454043      0.020548     -0.022198
O	      1.86745      6.38680     -6.38666        -0.460991     -0.021401      0.021584
O	     -1.95269      2.09852     -2.09955        -0.116595      0.132116     -0.134131
O	      3.94873      6.27168     -4.13566        -0.005318     -0.165989      0.173155
