# total energy = -226.17595608 eV
 
CRYSTAL
PRIMVEC
5.968779 0.015718 -0.042320 
1.607178 7.640081 -0.038965 
1.417815 2.515341 7.220732 
PRIMCOORD
36 1
Li	      0.01708      0.07355      0.11912        -0.001924     -0.003619     -0.005993
Li	      3.02780      5.12485      7.14939         0.007280      0.000795     -0.002983
Li	      4.50349      7.59984      7.09398         0.009359     -0.001446      0.001773
Li	      3.06031      8.33174      2.36438        -0.002369      0.002855     -0.011070
Li	      1.70699      6.05888      2.36067         0.008648     -0.001183     -0.009138
Li	      4.40827      6.04087      2.35645         0.017316     -0.009243     -0.001547
Li	      4.56010      9.18841      4.69334        -0.006231      0.007704      0.006029
Li	      5.87155      6.77429      4.75763        -0.002761      0.009673      0.012700
Li	      3.24716      6.81185      4.66081        -0.016469      0.003976     -0.006781
Sc	      7.53753      9.28805      4.67753        -0.001674     -0.006616     -0.012096
Ti	      6.21930      5.10304     -0.03731         0.002117     -0.008744     -0.005472
V	      1.51993      4.32194      4.83910        -0.006852      0.004021     -0.007134
Cr	      2.96968      3.40514      2.35501        -0.014844     -0.003989      0.001466
Fe	      4.37255      7.59998     -0.01547         0.014100     -0.003282      0.017545
Fe	      6.00512      8.32822      2.37194        -0.001129     -0.011885      0.008265
Co	      5.97129      3.38499      2.35409        -0.017381      0.015149      0.002409
Cu	      4.48407      2.57343     -0.03232         0.008228      0.014048     -0.005374
Ni	      4.44593      4.30554      4.81146         0.010717     -0.006322      0.001988
O	      3.03153      1.70748      1.16081        -0.002398     -0.001404      0.000339
O	      5.81037      1.76910      1.26932         0.004556      0.008629      0.006239
O	      1.53835      4.27938      1.15667         0.007020     -0.009938      0.012358
O	      4.54012      4.17103      1.23293        -0.013565      0.015272     -0.000604
O	      5.98716      6.73584      1.05894         0.005193      0.005129     -0.013642
O	      3.08998      6.83731      1.06487         0.000840      0.004476     -0.003033
O	      1.49755      2.67148      3.58899        -0.002986     -0.020003      0.015603
O	      4.35395      2.54706      3.57158        -0.007055      0.000297      0.012183
O	      6.12049      4.91907      3.68162         0.000373     -0.010001      0.014747
O	      2.92505      4.98388      3.59804         0.004690      0.005771      0.004833
O	      4.60497      7.64576      3.48859         0.002405      0.002371      0.005605
O	      7.50146      7.70121      3.48301        -0.010100     -0.001718     -0.009281
O	      5.97589      3.43064      5.96212        -0.007454      0.004210     -0.003307
O	      2.85378      3.42560      5.93226         0.000363      0.002274      0.003651
O	      4.53418      5.88919      6.00226         0.003944     -0.003528     -0.001900
O	      7.41973      5.92985      6.05451        -0.003128     -0.011913     -0.019458
O	      2.87929      8.34883      6.04690         0.012762      0.007986     -0.006548
O	      6.13924      8.51445      6.04160        -0.001589      0.000201     -0.002371
