# total energy = -229.57531460 eV
 
CRYSTAL
PRIMVEC
5.873179 0.010526 -0.009021 
1.576167 7.829141 0.186376 
1.433263 2.781846 7.301929 
PRIMCOORD
36 1
Li	      0.03211      0.04129      0.14684         0.011016     -0.015322     -0.007525
Li	      2.98971      5.44429      7.30621         0.000488     -0.000873     -0.010098
Li	      4.46035      8.09647      7.39213        -0.000167     -0.005945      0.001726
Li	      3.00444      8.54463      2.51770         0.008364      0.009232      0.000294
Li	      1.61579      6.33886      2.56411         0.010622     -0.002282     -0.000218
Li	      4.36493      6.32701      2.58733         0.001812     -0.003547     -0.006278
Li	      4.47639      9.47280      4.99827         0.000595      0.025146      0.010763
Li	      5.85982      7.04793      4.89706        -0.007223      0.017541      0.018140
Li	      3.21231      7.08002      5.01977        -0.007086      0.000660      0.000840
Sc	      5.84781      1.82443      4.74272        -0.010360     -0.000592     -0.007019
Ti	      6.04630      5.23518      0.15297        -0.001314     -0.002272      0.007297
V	      1.54592      4.57091      4.96728         0.011412     -0.005792     -0.001928
Cr	      2.94911      3.58564      2.49728         0.013624     -0.006290     -0.003370
Cr	      4.41142      7.77802      0.19226         0.000422     -0.004057      0.013509
Fe	      5.84174      5.40239      7.33203         0.002537     -0.007445      0.002864
Co	      5.89818      3.54980      2.46954        -0.009026      0.000296      0.005805
Cu	      5.91067      8.69782      2.63470         0.000489      0.010689     -0.000358
Ni	      4.42097      4.57648      4.95608        -0.012110     -0.008490      0.013079
O	      3.01850      1.72754      1.31334        -0.000541     -0.012452     -0.003836
O	      5.65636      1.70740      1.35978        -0.009626      0.010249      0.005000
O	      1.45496      4.29888      1.30725         0.003390      0.008052      0.001235
O	      4.46593      4.26654      1.26817         0.004998      0.012107     -0.009546
O	      5.87429      6.75717      1.19258        -0.002721      0.004723     -0.007904
O	      3.05961      7.00959      1.27036        -0.006802     -0.003710     -0.005325
O	      1.51147      2.89001      3.73715         0.021765     -0.009976      0.003605
O	      4.41508      2.95351      3.69690         0.002731     -0.001335      0.008042
O	      6.08976      5.25328      3.91262        -0.009343      0.001450     -0.006810
O	      2.91522      5.21775      3.70118        -0.000390      0.006255     -0.010739
O	      4.56717      7.97300      3.72434         0.004549      0.003153      0.011647
O	      7.29316      8.03073      3.72839        -0.010259     -0.008957     -0.001842
O	      5.88563      3.64054      6.14375        -0.013583      0.000723     -0.005521
O	      2.86589      3.70044      6.10247        -0.002136     -0.005921     -0.007871
O	      4.48111      6.16628      6.20828         0.001250      0.007386      0.001755
O	      7.34238      6.18296      6.24105         0.005380      0.001044     -0.004411
O	      2.85556      8.67445      6.23411         0.003250     -0.001024     -0.004676
O	      6.01332      8.93648      6.31099        -0.006008     -0.012425     -0.000326
