# total energy = -222.18408608 eV
 
CRYSTAL
PRIMVEC
5.978660 -0.076606 0.072814 
1.490956 7.613356 -0.065575 
1.520287 2.437168 7.211744 
PRIMCOORD
36 1
Li	      0.18958      0.00563      0.12681        -0.004096     -0.001006      0.003846
Li	      3.00376      4.96847      7.16146         0.000018      0.003501     -0.000661
Li	      4.53670      7.55730      7.08877         0.001610     -0.004669      0.005306
Li	      3.04938      8.21672      2.35855         0.005016     -0.007928      0.001293
Li	      1.63424      6.01389      2.38069         0.007266      0.008999     -0.003430
Li	      4.33950      6.02103      2.39661         0.010234     -0.004223      0.011560
Li	      4.48918      9.04649      4.84303         0.005634     -0.009426      0.010487
Li	      5.86328      6.64786      4.75912         0.005719      0.005692      0.001411
Li	      3.23304      6.71169      4.70293         0.004128      0.000499      0.005720
Sc	      7.51593      9.09786      4.77437        -0.003331     -0.013299     -0.000520
Ti	      6.08665      5.11800      0.11783        -0.005657     -0.017514     -0.001597
V	      1.51851      4.28535      4.82181        -0.009726      0.013814      0.014881
Cr	      5.96830      8.29057      2.38308         0.000928     -0.005832      0.015174
Fe	      2.92403      3.36549      2.33259         0.002457      0.001608     -0.012050
Co	      5.97495      3.26512      2.42714         0.013477      0.015284     -0.002106
Cu	      5.96169      4.94412      7.22050         0.002807      0.011717     -0.002930
Cu	      4.38789      7.57377      0.00684        -0.018516     -0.005426      0.008854
Ni	      4.43992      4.19568      4.83525        -0.006283     -0.005711     -0.001194
O	      3.07225      1.64980      1.25136        -0.005036     -0.007998     -0.006622
O	      5.85343      1.70658      1.29917         0.000944     -0.001387     -0.012859
O	      1.38106      4.12673      1.22481        -0.002508      0.002185     -0.003930
O	      4.59892      4.07882      1.30153        -0.004949      0.002608     -0.001370
O	      6.09593      6.56420      1.26002        -0.002225      0.010494      0.006903
O	      3.06209      6.73984      1.07742         0.008312      0.007310     -0.011576
O	      1.42226      2.62244      3.49156        -0.009879     -0.007514      0.007835
O	      4.53265      2.47136      3.51057        -0.004443     -0.000513     -0.001620
O	      6.09415      4.74721      3.70248        -0.008039     -0.001507     -0.003653
O	      2.93998      4.93679      3.58577        -0.006054      0.006365     -0.000013
O	      4.56965      7.59553      3.55804         0.008147      0.001223      0.003321
O	      7.41443      7.57166      3.54736        -0.001252      0.011717     -0.003005
O	      5.91874      3.30661      6.04024         0.013147      0.010182     -0.011981
O	      2.74519      3.32068      5.77335        -0.004686     -0.010416     -0.005322
O	      4.53912      5.75866      6.07643         0.000310     -0.000363      0.002513
O	      7.42779      5.76165      6.08584        -0.000952     -0.021797     -0.009870
O	      2.88193      8.28008      6.02535         0.007515     -0.001079     -0.005879
O	      6.16607      8.30845      6.15262        -0.000036      0.014410      0.003084
