# total energy = -222.24291724 eV
 
CRYSTAL
PRIMVEC
5.869128 -0.008716 0.009764 
1.549746 7.862989 0.203366 
1.446187 2.800973 7.322633 
PRIMCOORD
36 1
Li	      0.02064      0.03998      0.13615        -0.000371      0.004050     -0.006761
Li	      2.98647      5.43294      7.35453        -0.005800     -0.001044     -0.000338
Li	      4.45323      8.08963      7.41370        -0.003651     -0.001040     -0.004776
Li	      3.03509      8.60361      2.51647         0.006889      0.001991     -0.001192
Li	      1.56029      6.34144      2.63340         0.004203      0.004875     -0.003753
Li	      4.36285      6.35223      2.56701         0.001841      0.006982      0.000838
Li	      4.46451      9.53504      5.02386        -0.000458      0.000370      0.002501
Li	      5.85493      7.06606      4.93008        -0.000152      0.000882      0.002099
Li	      3.21034      7.10375      5.01006        -0.008058     -0.003701      0.008933
Sc	      5.85070      1.80995      4.78871        -0.000829     -0.004683      0.010957
Ti	      6.03527      5.23751      0.18986        -0.003723     -0.004398     -0.012572
V	      1.54959      4.57574      5.01413         0.002821     -0.005060      0.021651
Cr	      2.95917      3.62513      2.53968         0.013308     -0.007175     -0.005262
Fe	      5.80578      5.42177      7.38496         0.006954     -0.014942      0.003703
Co	      5.89753      3.55406      2.51908        -0.006318      0.002814      0.002423
Cu	      4.36108      7.72179      0.15033         0.007444      0.007477     -0.014696
Cu	      5.88327      8.76759      2.66945         0.000596     -0.006082      0.001312
Ni	      4.41544      4.57582      5.00095        -0.005080     -0.003640      0.004482
O	      3.02249      1.88248      1.43788         0.006917      0.010812      0.009683
O	      5.64612      1.77317      1.38656         0.009898      0.003403     -0.002109
O	      1.48093      4.35550      1.29681         0.004017      0.003571      0.000824
O	      4.42754      4.31714      1.25508        -0.003868      0.003298      0.004137
O	      5.86942      6.76662      1.20448         0.003487      0.011756      0.009858
O	      3.02797      7.05026      1.29086        -0.008343     -0.004375      0.010058
O	      1.55183      2.89864      3.80992        -0.000156     -0.004431      0.003471
O	      4.37861      2.93988      3.78316        -0.001710     -0.000351     -0.004472
O	      6.07922      5.22641      3.91587        -0.001143      0.008448     -0.012991
O	      2.91000      5.27127      3.75943        -0.001165      0.006644     -0.001493
O	      4.55899      7.99359      3.72807        -0.004667     -0.000510      0.004166
O	      7.27507      8.06706      3.72793         0.010283     -0.000185     -0.002265
O	      5.88406      3.65420      6.19085        -0.001880     -0.004812      0.007329
O	      2.84231      3.73959      6.14225        -0.000069     -0.006521     -0.001583
O	      4.47693      6.16909      6.24321        -0.015259      0.004946     -0.019617
O	      7.31860      6.15946      6.27984        -0.002149     -0.006114     -0.005312
O	      2.85280      8.70054      6.24076        -0.002875     -0.001194      0.000848
O	      6.00809      8.85154      6.29710        -0.000934     -0.002063     -0.010080
