# total energy = -222.79132158 eV
 
CRYSTAL
PRIMVEC
5.842138 -0.003713 -0.008840 
1.549094 7.942937 0.320465 
1.419667 2.941309 7.404985 
PRIMCOORD
36 1
Li	      0.04259      0.04623      0.10847        -0.000139     -0.003641      0.010894
Li	      2.97257      5.59632      7.48666         0.003967      0.006309     -0.008942
Li	      2.96542      5.37980      0.23366        -0.006797     -0.000523      0.001018
Li	      2.97898      8.68651      2.64839         0.003641     -0.009201     -0.005961
Li	      1.58346      6.51738      2.69262        -0.005496      0.014438      0.009873
Li	      4.32628      6.51482      2.75768        -0.013774      0.012797      0.010424
Li	      4.46041      9.77508      5.11178        -0.009062     -0.008281      0.006530
Li	      5.80554      7.25378      5.07467        -0.013580      0.007746     -0.006223
Li	      3.21298      7.31518      5.21461        -0.003613      0.007682      0.000882
Sc	      5.81839      1.93812      4.85227         0.008346     -0.015585      0.001866
Ti	      5.96178      5.33986      0.32607        -0.004728      0.016834     -0.009496
V	      1.61361      4.81991      5.05093         0.001537      0.003602     -0.005003
Cr	      4.36633      7.84550      0.31311         0.003413     -0.004467     -0.004655
Fe	      4.32903      2.59255      0.07648        -0.001703     -0.006866      0.013592
Co	      5.87116      3.57079      2.54337         0.001739      0.004630     -0.009817
Cu	      2.93125      3.68531      2.54208         0.002651      0.001610     -0.005665
Cu	      5.85466      8.87335      2.79403        -0.002314      0.002393      0.009719
Ni	      4.41258      4.68927      5.08187         0.007389     -0.008320     -0.018577
O	      3.00377      1.52610      1.19457         0.007738     -0.005513      0.009343
O	      5.64188      1.78163      1.40960         0.002040      0.004233      0.001205
O	      1.45817      4.36310      1.34541        -0.001451     -0.011457     -0.004690
O	      4.42667      4.29818      1.21419        -0.014201      0.008447      0.001812
O	      5.83598      6.83958      1.34589         0.009566      0.004411      0.006542
O	      3.00159      7.09370      1.42171         0.008545      0.001720     -0.004995
O	      1.53197      3.07796      3.92900        -0.008243     -0.003879     -0.002501
O	      4.33668      3.08789      3.79655         0.006844     -0.009463     -0.012545
O	      6.06052      5.35774      4.00175        -0.000932      0.001244      0.000065
O	      2.85649      5.58825      4.04575         0.002086     -0.022860      0.005544
O	      4.51908      8.16261      3.88324        -0.002971      0.009311     -0.009648
O	      7.21572      8.26036      3.92117         0.009441      0.020559     -0.013514
O	      5.84748      3.73129      6.23535         0.004204      0.000772     -0.002007
O	      2.83587      3.84454      6.20163        -0.002850     -0.000989      0.010973
O	      4.45164      6.29639      6.31992         0.016835     -0.018950      0.000660
O	      7.27263      6.18040      6.29385         0.002237     -0.014598      0.014136
O	      2.78795      8.85147      6.43174        -0.000447      0.005595      0.010186
O	      5.95162      9.13450      6.52265        -0.009919      0.010259     -0.001026
