# total energy = -222.28409572 eV
 
CRYSTAL
PRIMVEC
5.956054 -0.068774 0.060030 
1.494879 7.638623 -0.031719 
1.502094 2.482297 7.211096 
PRIMCOORD
36 1
Li	      0.18118     -0.00000      0.10959        -0.009412      0.001284      0.001383
Li	      3.00502      5.01909      7.19210        -0.000105      0.002443     -0.000905
Li	      4.53459      7.61288      7.12784        -0.002337     -0.000108      0.002473
Li	      3.02347      8.27538      2.35633         0.004794     -0.005899     -0.000204
Li	      1.64385      6.03165      2.39126         0.006836      0.004121     -0.000503
Li	      4.31925      6.02292      2.40949         0.008758     -0.003928      0.008936
Li	      4.47167      9.11217      4.87493         0.003595     -0.005171      0.009023
Li	      5.84233      6.70222      4.80958         0.002770      0.002649     -0.000381
Li	      3.18872      6.76983      4.72239         0.003886      0.000899      0.001591
Sc	      7.47913      9.18028      4.78637         0.001835      0.004268      0.001884
Ti	      6.08935      5.10794      0.10825        -0.001034      0.003310      0.007203
V	      1.51349      4.33768      4.82993        -0.000785     -0.000235     -0.008852
Cr	      2.94666      3.36899      2.37115         0.004542      0.008061      0.005746
Fe	      5.92942      8.24800      2.40797         0.000504      0.000175     -0.002616
Co	      5.94514      3.30652      2.43115         0.001785      0.000075     -0.006621
Cu	      4.42427      2.51725      0.01886         0.000550      0.004342     -0.001408
Cu	      2.89748     -0.03234      0.06273         0.006204      0.009247     -0.009354
Ni	      4.41688      4.25294      4.84823        -0.009854      0.000570     -0.000663
O	      3.03540      1.67695      1.23294        -0.003092     -0.006859      0.000345
O	      5.81352      1.73396      1.31835        -0.000011      0.000339     -0.000643
O	      1.39182      4.13920      1.24609        -0.004388      0.001963     -0.000791
O	      4.56339      4.10156      1.30349         0.001487      0.003728     -0.000205
O	      6.08922      6.56854      1.25517         0.004389     -0.008526     -0.003034
O	      3.06604      6.77971      1.09787        -0.010783     -0.002958      0.008747
O	      1.42539      2.66554      3.50181        -0.007208      0.001784     -0.002500
O	      4.48661      2.55998      3.51951         0.003732      0.001396      0.002244
O	      6.06540      4.80207      3.70075        -0.001445     -0.002064     -0.004413
O	      2.91636      4.97680      3.59108        -0.007939     -0.007117     -0.005448
O	      4.54997      7.64474      3.57361         0.001412     -0.000773      0.003174
O	      7.41045      7.63287      3.57449         0.005669      0.001403      0.001814
O	      5.89129      3.35167      6.04950        -0.001615      0.001285     -0.007212
O	      2.72618      3.36804      5.78896        -0.001459     -0.005185     -0.004720
O	      4.51579      5.82169      6.07703        -0.000790     -0.003478      0.000610
O	      7.39819      5.82432      6.08762        -0.001292      0.000235      0.004855
O	      2.87565      8.34157      6.04323        -0.003274     -0.006179     -0.000673
O	      6.14062      8.37547      6.15680         0.004074      0.004901      0.001116
