# total energy = -222.67964289 eV
 
CRYSTAL
PRIMVEC
5.869439 0.005845 -0.057732 
1.569158 7.855231 0.217596 
1.370694 2.830503 7.352141 
PRIMCOORD
36 1
Li	     -0.00123     -0.01825      0.11311         0.007527      0.007059      0.001272
Li	      2.96488      5.47709      7.38081         0.010704     -0.001813     -0.000204
Li	      4.40521      8.03940      7.37284         0.016241     -0.005105     -0.006351
Li	      3.00100      8.61559      2.55511        -0.001488      0.005609      0.005232
Li	      1.58303      6.39938      2.66895         0.004954     -0.000640     -0.003962
Li	      4.33919      6.37948      2.70550         0.007097      0.000598     -0.003012
Li	      4.38536      9.56851      5.02296        -0.022191      0.013477      0.003257
Li	      5.79880      7.13758      4.95187        -0.009614      0.006906      0.005323
Li	      3.12224      7.10750      5.09016        -0.005340     -0.000136     -0.005387
Sc	      5.78492      1.88108      4.77179        -0.002833      0.004789     -0.006754
Ti	      6.02437      5.26183      0.12576        -0.003136     -0.012045      0.011384
V	      1.50374      4.68042      4.99715        -0.006918     -0.015897      0.010960
Cr	      4.43645      2.55058      0.02386         0.009332      0.008139     -0.008948
Fe	      4.31049      7.74955      0.22751         0.001924      0.000069      0.004136
Co	      5.88675      3.57534      2.45724        -0.012075     -0.005249     -0.001101
Cu	      2.92857      3.68841      2.49636         0.013226      0.015945      0.002355
Cu	      5.89589      8.75460      2.62756        -0.006219      0.018724      0.011797
Ni	      4.37130      4.65715      4.99449         0.014953     -0.012968      0.000746
O	      3.05157      1.56161      1.14969        -0.001480      0.010012     -0.015065
O	      5.70134      1.72190      1.35729        -0.010520     -0.002583     -0.002696
O	      1.40321      4.22301      1.36743        -0.004247      0.004431      0.013621
O	      4.57613      4.20193      1.17554         0.010818      0.008680     -0.011657
O	      5.90629      6.72620      1.19145         0.005969      0.012650      0.004422
O	      3.02386      6.97699      1.31672        -0.001204     -0.003252      0.009053
O	      1.38192      2.97729      3.78800        -0.016163     -0.019701      0.012454
O	      4.42756      3.08596      3.61802         0.005451     -0.000825     -0.012019
O	      6.01053      5.32337      3.86737        -0.003277     -0.000307     -0.002263
O	      2.85299      5.45998      3.90431        -0.012472     -0.012865     -0.009623
O	      4.54530      8.08520      3.73176         0.004161      0.000609     -0.008425
O	      7.24235      8.13077      3.75826         0.004405     -0.014836      0.003422
O	      5.83514      3.70395      6.14672        -0.011095      0.020037      0.006607
O	      2.80314      3.68764      6.07343         0.010093     -0.002019     -0.003200
O	      4.43465      6.23615      6.27321        -0.001399     -0.009287     -0.013043
O	      7.26829      6.17916      6.24079        -0.003073     -0.012753     -0.001905
O	      2.80067      8.72897      6.29323         0.008710     -0.001539      0.007126
O	      5.95564      8.94902      6.33184        -0.000823     -0.003912      0.002449
