# total energy = -227.08383427 eV
 
CRYSTAL
PRIMVEC
5.904080 -0.003193 -0.007448 
1.566622 7.809398 0.153326 
1.436613 2.741099 7.318468 
PRIMCOORD
36 1
Li	      0.00100      0.02877      0.14404        -0.003119      0.002253     -0.000680
Li	      3.01715      5.41711      7.27852        -0.001405     -0.005627      0.002719
Li	      4.46148      7.92402      7.31278         0.003470     -0.004031     -0.005035
Li	      3.02727      8.54356      2.52264        -0.006292      0.002755      0.000190
Li	      1.60061      6.31126      2.56132        -0.002053     -0.000270      0.005614
Li	      4.39582      6.29564      2.57367        -0.004550      0.003298      0.002941
Li	      4.49910      9.47524      4.93391        -0.001557     -0.000637      0.002651
Li	      5.86553      7.02105      4.91038         0.003681     -0.003224     -0.000782
Li	      3.24286      7.02343      4.98403         0.001248      0.000230     -0.001396
Sc	      7.43718      9.59531      4.93471        -0.002208      0.002708      0.003284
Ti	      6.06869      5.20813      0.13265         0.001009      0.005294      0.003056
V	      1.53466      4.53942      4.98677         0.002603     -0.006036      0.004281
Cr	      4.42506      2.58326      0.04522         0.015995      0.002062     -0.001025
Fe	      2.96162      3.60508      2.50968         0.005365     -0.001096      0.003551
Fe	      4.33163      7.71590      0.18079         0.002296     -0.009999     -0.005532
Co	      5.93072      3.49766      2.47758        -0.002448      0.002967     -0.002295
Cu	      5.93700      8.67332      2.59971        -0.004082      0.001158      0.003812
Ni	      4.43027      4.53777      4.96800        -0.000764      0.001908     -0.006055
O	      3.05252      1.71330      1.29511        -0.001358     -0.001821      0.003660
O	      5.70198      1.73302      1.38022        -0.001255      0.004372     -0.000763
O	      1.48600      4.28829      1.26085         0.001835      0.000435     -0.001185
O	      4.44195      4.24752      1.20515        -0.002797     -0.000241     -0.003060
O	      5.90663      6.71332      1.17277         0.000784     -0.003804      0.000142
O	      3.03538      6.99610      1.26951        -0.001779     -0.000934      0.006541
O	      1.54836      2.83060      3.78681         0.002612      0.003996     -0.001289
O	      4.39584      2.89539      3.74421        -0.000544      0.003269     -0.003800
O	      6.10889      5.16130      3.86884        -0.000881      0.000245     -0.004830
O	      2.92071      5.23888      3.73217         0.000917      0.001094      0.003829
O	      4.59836      7.93120      3.67945        -0.008577     -0.000572     -0.002611
O	      7.30857      7.99635      3.69393        -0.006579      0.008040     -0.004881
O	      5.91659      3.62842      6.17275         0.003588     -0.003514     -0.000933
O	      2.86416      3.67448      6.11670         0.005540     -0.005018      0.000564
O	      4.50713      6.12712      6.18885        -0.003743      0.004208      0.000199
O	      7.33604      6.10156      6.23763        -0.000650      0.002297     -0.001999
O	      2.84309      8.61399      6.21595         0.001343     -0.000648     -0.001803
O	      6.03230      8.84712      6.28029         0.004355     -0.005117      0.002919
