# total energy = -103.61817937 eV
 
CRYSTAL
PRIMVEC
0.000295 2.091755 2.090218 
8.113439 -4.236859 4.235128 
2.042668 4.238085 -2.144575 
PRIMCOORD
16 1
Li	      8.10485     -2.12125      6.30298         0.007024      0.017316     -0.014217
Li	      2.04118      2.09648      0.00015        -0.007362     -0.016468      0.015395
Li	      4.10335      2.07997      2.10589        -0.030160     -0.004110      0.002843
Li	      6.04274     -2.10356      4.19792         0.028584      0.002815     -0.003295
Ti	      4.03367      4.23296     -0.05199        -0.005431      0.036553     -0.040586
Ti	      8.15467     -0.02573      4.20378         0.008165     -0.042637      0.037793
Ni	      6.12237      2.07615      0.02028         0.028603     -0.008533      0.009177
Ni	      6.06591      0.04688      2.04884        -0.028524      0.008223     -0.008694
O	      6.09435      2.10737      2.07976        -0.000009     -0.000703     -0.000645
O	      6.18831      0.03785      4.15002         0.179964     -0.096146      0.087161
O	      8.16688     -0.09771      2.19448         0.092309     -0.071433      0.074597
O	      8.13767     -1.99755      4.09501         0.006487      0.093983     -0.092504
O	      2.03771      4.22560     -0.03812        -0.002081     -0.001027     -0.000775
O	      2.00852      1.97491      2.20975        -0.008112     -0.088351      0.094731
O	      4.02142      2.22229     -0.12378        -0.091624      0.072992     -0.072107
O	      3.95759     -0.06086      2.15441        -0.177833      0.097524     -0.088876
