# total energy = -222.59444629 eV
 
CRYSTAL
PRIMVEC
6.071091 -0.157863 0.164792 
1.410549 7.587763 -0.067434 
1.617990 2.390659 7.205306 
PRIMCOORD
36 1
Li	      0.21566     -0.00138      0.13391         0.006610     -0.003548      0.000348
Li	      1.39174      2.56527     -0.06258        -0.000631      0.000203      0.001004
Li	      4.55101      7.46566      7.16487        -0.003940      0.001422      0.004353
Li	      3.03135      8.25775      2.28484         0.009755      0.004705      0.000235
Li	      1.60783      5.94367      2.33081        -0.000515     -0.006066      0.006782
Li	      4.27854      5.90530      2.38354         0.003717      0.002247     -0.005730
Li	      4.60051      9.00636      4.92113         0.004078     -0.014264      0.013743
Li	      6.00684      6.50551      4.84630         0.003233     -0.002864      0.006349
Li	      3.32459      6.57297      4.87854         0.001238     -0.003777     -0.000077
Sc	      7.63687      8.99099      4.88449         0.002969      0.005934     -0.001380
Ti	      6.10119      5.04682      0.23447        -0.002346      0.010378     -0.007917
V	      1.59254      4.23675      4.74821         0.011266     -0.015307      0.005991
Cr	      6.00905      8.18975      2.52195         0.010735      0.018165     -0.009441
Fe	      6.01871      4.85434      7.25784        -0.002227      0.001457     -0.011213
Co	      6.04881      3.17781      2.50513        -0.010044      0.001180      0.013032
Cu	      2.99408      3.31614      2.38634         0.000884     -0.006480      0.002174
Cu	      4.37532      7.47812      0.05185         0.016732      0.006411      0.003792
Ni	      4.51953      4.07102      4.84970        -0.006446     -0.000405     -0.003522
O	      3.18801      1.54115      1.36821         0.002934      0.003294      0.003307
O	      5.85106      1.60043      1.38401         0.000679     -0.001366     -0.002825
O	      1.21430      4.17325      1.11786         0.003112      0.000940     -0.004795
O	      4.64612      4.00831      1.38661        -0.006944      0.004468     -0.009317
O	      6.08711      6.54343      1.33308        -0.002005     -0.009190      0.008915
O	      3.01075      6.70541      1.10060        -0.010631     -0.004258      0.011936
O	      1.43559      2.61296      3.42026        -0.000485      0.008154     -0.009049
O	      4.74764      2.29560      3.68293        -0.001759     -0.002519     -0.010249
O	      6.20656      4.65218      3.77991        -0.001440      0.001484     -0.005562
O	      3.01175      4.91865      3.61080        -0.008873     -0.003104      0.000471
O	      4.64245      7.54669      3.55029        -0.003463     -0.003442      0.011119
O	      7.41453      7.48315      3.52900        -0.001997     -0.001555      0.001514
O	      6.04555      3.19662      6.08858        -0.000381      0.008580     -0.002604
O	      2.78637      3.27108      5.76322        -0.019822      0.002550     -0.007829
O	      4.62217      5.65114      6.13300        -0.001585     -0.001127     -0.008496
O	      7.53800      5.61774      6.11529        -0.001373      0.002296      0.000483
O	      2.91118      8.21467      6.00101         0.005475     -0.002151      0.002512
O	      6.22648      8.17635      6.17461         0.003490     -0.002445      0.001945
