# total energy = -222.18037089 eV
 
CRYSTAL
PRIMVEC
5.907928 0.019691 -0.002172 
1.359813 7.756393 0.037668 
1.624268 2.522655 7.268696 
PRIMCOORD
36 1
Li	      5.96656      5.13181      7.21813        -0.004895     -0.001493      0.002679
Li	      2.83302      5.26805      0.00974        -0.000138     -0.006506      0.001838
Li	      5.82664      5.29756      0.13569         0.002681     -0.010333      0.005928
Li	      5.83956      8.47765      2.46910         0.001656      0.001062     -0.003263
Li	      2.95148      8.45657      2.46615        -0.009218     -0.006722     -0.001681
Li	      1.48362      6.11710      2.46508         0.003701     -0.000848     -0.009180
Li	      4.32683      6.15462      2.29755         0.002174     -0.004002      0.007029
Li	      4.50371      4.29856      4.89289         0.002051     -0.001810     -0.001750
Li	      3.01202      6.85455      4.88246         0.006050      0.008856     -0.005705
Sc	      7.38776      9.32030      4.86571         0.004645     -0.004112     -0.007204
Ti	      5.78086      3.45937      2.29412        -0.005725     -0.014613     -0.012273
V	      1.57673      4.31604      4.84227        -0.017706     -0.017889      0.000140
Cr	      1.48678      2.65646     -0.01392        -0.004715     -0.000064      0.013969
Fe	      5.82382      6.79797      4.85378         0.015423      0.013324      0.018853
Co	      2.96167      3.40151      2.39917        -0.022536     -0.001430      0.001871
Cu	      2.97777      0.06211      0.08923         0.005263      0.001170      0.005711
Cu	      4.42321      9.35680      4.88461         0.006936      0.016452     -0.012981
Ni	      0.02067     -0.00793      0.09171        -0.007454     -0.012910      0.010241
O	      2.89049      1.89679      1.17753         0.011689      0.005819      0.000427
O	      5.96535      1.90285      1.23181        -0.005585      0.001886      0.003745
O	      1.34922      4.22342      1.26477         0.014869      0.006780     -0.002395
O	      4.45271      4.30070      1.36941        -0.023291      0.001204     -0.008866
O	      5.75070      7.00567      1.16098        -0.001036      0.009776     -0.010334
O	      2.93242      6.98911      1.18041        -0.022271      0.008142      0.011898
O	      1.52491      2.61206      3.64536         0.009764     -0.001133     -0.005613
O	      4.55403      2.56424      3.59811         0.005299      0.002915      0.005779
O	      6.01879      5.03113      3.72581         0.005553     -0.007028      0.001249
O	      2.87229      4.91880      3.70803         0.010334     -0.005047     -0.001320
O	      4.43968      7.74033      3.75445         0.000164      0.001491     -0.009490
O	      7.29643      7.64935      3.74629        -0.012543     -0.004500      0.006215
O	      6.13278      3.39500      6.01028         0.001173      0.006360      0.004113
O	      3.05682      3.44020      6.09330         0.018943      0.013020     -0.005208
O	      4.50623      5.97439      6.06462         0.006205     -0.001480     -0.010491
O	      7.48571      5.85495      6.00888        -0.000739      0.001494     -0.002850
O	      3.00529      8.63500      6.07550        -0.010428     -0.000862      0.003044
O	      5.88897      8.50580      6.01994         0.013708      0.003030      0.005875
