# total energy = -222.47314702 eV
 
CRYSTAL
PRIMVEC
5.887369 -0.002384 0.005594 
1.563038 7.789073 0.149848 
1.448549 2.728386 7.302310 
PRIMCOORD
36 1
Li	      0.00131      0.05189      0.14825        -0.003893      0.007472     -0.002216
Li	      3.02306      5.39485      7.26901         0.000925      0.001853      0.000437
Li	      4.47394      7.89495      7.30008         0.006382     -0.003282     -0.002171
Li	      3.02604      8.50012      2.53208        -0.005812      0.000698      0.002372
Li	      1.60105      6.26809      2.53494         0.001242     -0.007380      0.002749
Li	      4.39113      6.26932      2.56901        -0.002512     -0.003134     -0.001696
Li	      4.49348      9.44773      4.94757        -0.000644     -0.003703      0.002041
Li	      5.86280      6.99865      4.91992         0.003865     -0.005926     -0.006051
Li	      3.22510      7.02385      4.93295         0.000974     -0.004785     -0.004785
Sc	      7.42797      9.56468      4.92716        -0.002871      0.002487     -0.002612
Ti	      6.05870      5.17961      0.13453        -0.000880      0.010074      0.005827
V	      1.53550      4.51689      4.97399        -0.010094     -0.005294     -0.002614
Cr	      2.96244      3.54576      2.49230         0.007391     -0.003938      0.013885
Fe	      4.34408      7.70844      0.18094        -0.000225     -0.006860     -0.009980
Co	      5.91041      3.49375      2.47794        -0.003758      0.005274      0.001361
Cu	      5.86116      5.32371      7.34786        -0.000366      0.000824     -0.001267
Cu	      5.92780      8.64583      2.60789        -0.013307     -0.002596      0.003521
Ni	      4.42510      4.52638      4.96889         0.002981      0.016680      0.007604
O	      3.04756      1.73852      1.34069        -0.002814      0.007646      0.005512
O	      5.66968      1.73435      1.38723         0.004471      0.008845      0.001403
O	      1.48133      4.27659      1.26290         0.001593      0.002963     -0.001621
O	      4.43066      4.25345      1.21850         0.001430     -0.001733     -0.001897
O	      5.89225      6.69672      1.17681         0.002591     -0.004269     -0.008652
O	      3.03860      6.99080      1.26711        -0.000377      0.004143      0.007023
O	      1.56086      2.82304      3.77754        -0.000030     -0.003041     -0.002038
O	      4.39152      2.88685      3.74186        -0.003273      0.000969     -0.005209
O	      6.09572      5.15108      3.87442         0.004887     -0.003788     -0.000728
O	      2.91519      5.18471      3.70785        -0.000287     -0.001420      0.001692
O	      4.58806      7.90395      3.68414        -0.001102     -0.001316     -0.002755
O	      7.31378      7.96292      3.68858        -0.006220      0.002510     -0.001672
O	      5.89891      3.59367      6.16030         0.006637     -0.002394      0.001923
O	      2.86506      3.66757      6.11699         0.005255     -0.004943      0.003081
O	      4.50254      6.11501      6.17264        -0.005981      0.001547     -0.002183
O	      7.34293      6.11422      6.22637         0.004220      0.002469      0.001337
O	      2.85893      8.58760      6.19304         0.004250     -0.000541     -0.003112
O	      6.03159      8.81750      6.26857         0.005352     -0.006109      0.001490
