# total energy = -235.11433577 eV
 
CRYSTAL
PRIMVEC
5.968141 -0.016421 0.043055 
1.327033 7.698260 -0.008931 
1.681497 2.442132 7.304862 
PRIMCOORD
36 1
Li	      6.04666      5.04359      7.24487        -0.005695     -0.007188     -0.006573
Li	      2.78957      5.17484     -0.04248        -0.008360     -0.001745      0.003958
Li	      5.86717      5.12197      0.08310        -0.003109     -0.014728     -0.002149
Li	      5.91092      8.37088      2.56938         0.010469     -0.002596      0.003073
Li	      2.90904      8.36558      2.49243         0.004283     -0.001499     -0.004699
Li	      1.46889      6.02815      2.43279        -0.005328     -0.003923     -0.000674
Li	      4.33827      5.96265      2.48885        -0.002715     -0.000668      0.003826
Li	      4.55936      4.20686      4.90897        -0.000998      0.001252      0.002090
Li	      3.04324      6.78445      4.88964         0.007346      0.000716      0.004911
Sc	      7.49563      9.21631      4.88815        -0.004125      0.006465      0.005267
Ti	      4.37184      7.61087      0.21127        -0.003236     -0.015105     -0.005943
Ti	      5.85677      3.34564      2.31920        -0.016767      0.001746     -0.019040
V	      1.60623      4.29251      4.79936        -0.000811      0.008175     -0.014313
Cr	      3.14869      5.06509      7.23579        -0.020162     -0.001422      0.004795
Fe	      5.85974      6.73033      4.87938         0.005509     -0.004092      0.001734
Co	      2.98994      3.30659      2.38124         0.004144     -0.002133     -0.000779
Cu	      4.47761      9.26979      4.84220         0.014074      0.009492      0.010501
Ni	      0.01808      0.02858      0.03048         0.006318      0.000985     -0.005238
O	      2.89294      1.67864      1.03490         0.000634      0.000935      0.002161
O	      6.01805      1.80022      1.23321         0.004156      0.008627      0.009958
O	      1.36712      4.16735      1.22954         0.000910     -0.007955     -0.012989
O	      4.53025      4.22387      1.40341         0.016299     -0.011421      0.011704
O	      5.75471      6.94620      1.18552         0.000527      0.000016      0.011103
O	      2.93836      6.90017      1.14532         0.011096      0.011396     -0.003503
O	      1.40505      2.64942      3.56631        -0.003260     -0.005606      0.011483
O	      4.58395      2.46998      3.62646        -0.000626     -0.001076     -0.006080
O	      6.06449      4.98327      3.78057        -0.001484     -0.003656     -0.005346
O	      2.89274      4.92261      3.72607         0.001670      0.006316      0.006788
O	      4.48699      7.60699      3.75866         0.003833      0.003649      0.002484
O	      7.34160      7.54691      3.77606         0.005496      0.007909      0.002541
O	      6.17724      3.29630      6.08446        -0.007979     -0.006936      0.003814
O	      3.07083      3.37911      6.04914         0.000841      0.007498     -0.005059
O	      4.57586      5.91227      6.10824        -0.014202     -0.003060      0.002046
O	      7.57702      5.75778      6.08103        -0.000248      0.005333     -0.005858
O	      3.06898      8.55871      6.03888        -0.000852      0.005903     -0.006644
O	      6.09662      8.48605      6.23202         0.002351      0.008396      0.000649
