# total energy = -222.36418257 eV
 
CRYSTAL
PRIMVEC
6.021208 -0.069612 0.052853 
1.511675 7.571334 -0.082153 
1.508555 2.413548 7.197538 
PRIMCOORD
36 1
Li	      0.04831      0.04228      0.11034        -0.001145     -0.006863     -0.004869
Li	      1.53546      2.57547     -0.00983        -0.000710     -0.010404      0.011614
Li	      4.50220      7.43829      7.05584         0.002463     -0.007067      0.015849
Li	      3.05626      8.21484      2.35903        -0.002364     -0.003909     -0.005317
Li	      1.65333      5.93904      2.35983        -0.013020     -0.001183     -0.003065
Li	      4.35191      5.94998      2.36419        -0.007871     -0.014062      0.011127
Li	      4.57906      9.00802      4.73013         0.010801      0.001473      0.011376
Li	      5.90233      6.61228      4.71015         0.012063     -0.001271      0.001972
Li	      3.30047      6.65013      4.67626         0.002208      0.006337      0.011678
Sc	      7.61109      9.01771      4.70457         0.011332      0.007565     -0.001262
Ti	      6.11952      5.02943      0.03924         0.005144     -0.003501      0.010085
V	      1.57125      4.21897      4.79935        -0.015916     -0.004634     -0.004217
Cr	      6.00317      8.27919      2.36312        -0.012007      0.006322      0.001178
Fe	      4.31961      7.50576     -0.02076         0.006645     -0.001251     -0.013977
Co	      6.02016      3.26391      2.42419        -0.003807      0.015986     -0.009652
Cu	      4.48762      2.50087      0.01380        -0.004494      0.010860     -0.011136
Cu	      2.97781      3.33939      2.34961         0.004091      0.013740      0.005095
Ni	      4.51199      4.14826      4.81401        -0.005994      0.007185      0.000341
O	      3.08932      1.63513      1.20587         0.011968     -0.001921     -0.012169
O	      5.89284      1.71483      1.29706        -0.003506     -0.009347      0.003575
O	      1.24022      4.21799      1.17551         0.005660     -0.002281      0.000089
O	      4.62526      4.05442      1.31428         0.000470     -0.005348      0.000078
O	      5.91831      6.66346      1.07979         0.007835      0.009546      0.006254
O	      3.02106      6.72334      1.04108        -0.006492      0.012768      0.000471
O	      1.45540      2.61370      3.49856         0.010092     -0.010903     -0.007954
O	      4.68961      2.41576      3.57730         0.007391     -0.000692      0.000065
O	      6.19059      4.73746      3.71571        -0.006713      0.012280      0.009526
O	      2.98085      4.89310      3.61623        -0.000362     -0.006042     -0.006414
O	      4.58598      7.54076      3.50076         0.012035     -0.002011     -0.002953
O	      7.46080      7.49240      3.47391        -0.005232      0.001229     -0.014080
O	      6.04128      3.27208      6.02157        -0.000222      0.004735     -0.010968
O	      2.89302      3.26346      5.86972        -0.004620     -0.003639      0.004381
O	      4.58011      5.71778      6.05159        -0.010050     -0.008618      0.008548
O	      7.47366      5.71459      6.05525         0.002461     -0.001854     -0.005079
O	      2.88700      8.18850      6.01308        -0.006792     -0.005987     -0.002040
O	      6.14345      8.30222      6.03927        -0.001341      0.002758      0.001850
