# total energy = -234.37200953 eV
 
CRYSTAL
PRIMVEC
5.938105 -0.005398 0.029554 
1.335146 7.869790 0.218541 
1.660810 2.716981 7.375098 
PRIMCOORD
36 1
Li	      4.43524      2.68864      0.17452         0.006787      0.002317      0.000759
Li	      2.86013      5.17156      0.18731         0.000406     -0.000961      0.002679
Li	      5.87715      5.22616      0.38019         0.004178     -0.001467     -0.004085
Li	      4.61978      0.88867      2.42363         0.002040      0.010826     -0.005592
Li	      2.71908      8.66279      2.57520         0.014952      0.007566      0.008907
Li	      1.45220      6.23943      2.65542        -0.003760     -0.001703      0.004926
Li	      4.37524      5.98663      2.54597         0.010476     -0.005770      0.001380
Li	      4.55947      4.50879      5.03318        -0.002259      0.000503     -0.007033
Li	      3.01057      7.04757      5.07563        -0.008491     -0.000814     -0.001361
Sc	      6.06263      1.77831      4.86109         0.002678     -0.013760      0.007868
Ti	      4.30612      7.86073      0.45551         0.003923     -0.002966      0.003108
Ti	      4.42637      9.56570      5.07553        -0.001631     -0.002074      0.000930
V	      1.61033      4.54292      4.96423         0.007024     -0.003339     -0.005459
Cr	      1.42890      2.63418      0.05590         0.004678     -0.004243     -0.003215
Fe	      5.92216      6.93413      5.10508         0.000344     -0.005944     -0.005660
Co	      2.98093      3.56942      2.41775         0.002474      0.011326      0.003217
Cu	      5.82948      3.53683      2.42680         0.004129      0.001200     -0.011243
Ni	      5.93675      0.01411      0.06879        -0.005841     -0.004771     -0.006053
O	      2.89943      1.67675      1.10905        -0.001692      0.003334      0.000134
O	      6.00982      1.69570      1.20057        -0.008386     -0.008826      0.003869
O	      1.37231      4.21951      1.28741         0.000975      0.000667     -0.006696
O	      4.39985      4.36877      1.36744        -0.000783     -0.003855      0.013309
O	      5.69645      7.07999      1.35187         0.002339      0.002096      0.005277
O	      2.92784      7.05512      1.36858         0.011868      0.001391      0.002055
O	      1.68808      2.72250      3.83835        -0.005790      0.009631     -0.000385
O	      4.49394      2.65770      3.76098        -0.005431     -0.002738     -0.000020
O	      6.06205      5.33750      3.98729        -0.008047      0.011500     -0.001943
O	      2.88137      5.17252      3.85779        -0.005172     -0.000312     -0.010101
O	      4.48932      8.05198      4.07290        -0.011525      0.002206      0.004211
O	      7.32076      7.91807      4.03362        -0.002097     -0.004740      0.000402
O	      6.15676      3.53527      6.11368        -0.000965      0.006855     -0.009239
O	      3.09733      3.64204      6.17847        -0.001186      0.001737      0.004023
O	      4.53265      6.25153      6.26133        -0.004425     -0.003322      0.001458
O	      7.51938      6.05565      6.20136         0.002299      0.003745      0.001106
O	      3.04886      8.97629      6.26634        -0.001105     -0.006811      0.002469
O	      5.85289      9.04300      6.33864        -0.002981      0.001516      0.005995
