# total energy = -233.65691267 eV
 
CRYSTAL
PRIMVEC
5.961585 -0.020642 0.057003 
1.319459 7.787741 0.075874 
1.693864 2.547963 7.297190 
PRIMCOORD
36 1
Li	      6.01222      5.11804      7.33378         0.003147      0.004533     -0.001031
Li	      2.86978      5.26060      0.15770        -0.005108     -0.002432      0.004371
Li	      5.89043      5.32315      0.25556        -0.004497     -0.000063     -0.002782
Li	      5.92957      8.48961      2.47937        -0.001449      0.003401      0.002047
Li	      2.89860      8.55890      2.38071        -0.008561      0.006837     -0.000660
Li	      1.46712      6.19096      2.41992         0.000811     -0.003612     -0.000993
Li	      4.31012      6.20596      2.33035         0.004671      0.001951      0.002547
Li	      4.56473      4.28847      4.99807         0.004220     -0.006188      0.002565
Li	      3.01023      6.78953      4.87449        -0.001428      0.001413     -0.006503
Sc	      7.43663      9.34944      4.97177         0.010426      0.002563     -0.002436
Ti	      5.78599      3.53582      2.34467         0.002903     -0.009729     -0.003379
Ti	      4.46399      9.27306      4.89152        -0.000308      0.016943      0.001608
V	      1.64794      4.31477      4.89419         0.010615     -0.022925     -0.004197
Cr	      1.46816      2.66694      0.03020        -0.003281      0.002331      0.002612
Fe	      5.95478      6.71245      4.95152         0.006477     -0.008172      0.000284
Co	      2.98603      3.42490      2.48129         0.006043      0.013683      0.010737
Cu	      3.06579      0.04014      0.17962        -0.003360     -0.002454     -0.010307
Ni	      0.04403      0.01001      0.10965        -0.003800     -0.001020      0.002565
O	      2.86342      1.97311      1.22241         0.002867     -0.000439     -0.005476
O	      5.98937      1.89797      1.36083         0.004578      0.012048      0.002082
O	      1.27812      4.26758      1.26452        -0.001480      0.006476     -0.004399
O	      4.45633      4.32461      1.42006        -0.010991      0.002626      0.002678
O	      5.82369      6.96597      1.27565        -0.010734      0.008196     -0.003081
O	      2.90750      6.98958      1.23240         0.003273      0.007806     -0.000535
O	      1.67397      2.55109      3.76910        -0.011013     -0.009055     -0.006201
O	      4.60040      2.50971      3.76786         0.005158      0.003288     -0.009039
O	      6.08271      4.96510      3.81014        -0.003003      0.002313      0.005990
O	      2.90561      4.96415      3.75926         0.004406     -0.012473      0.001925
O	      4.46539      7.80479      3.82237         0.000873     -0.013871     -0.006804
O	      7.34532      7.64978      3.86795        -0.012437     -0.009335      0.002560
O	      6.22981      3.36080      6.09829        -0.001681     -0.003486      0.011735
O	      3.07790      3.50762      6.11868         0.006620     -0.000583      0.007170
O	      4.55874      6.00681      6.10062        -0.003192     -0.001453      0.002449
O	      7.53346      5.85752      6.08653         0.002840      0.008351      0.003205
O	      3.08582      8.71033      6.06275         0.001455      0.000394     -0.005321
O	      5.85400      8.53461      6.01337         0.004940      0.002135      0.004015
