# total energy = -222.87994128 eV
 
CRYSTAL
PRIMVEC
5.895208 0.008604 0.005120 
1.344133 7.721812 0.092765 
1.625182 2.558553 7.289953 
PRIMCOORD
36 1
Li	      4.37216      2.60956      0.04801         0.003835     -0.001363      0.001778
Li	      2.81375      5.14600      0.02626         0.005581      0.000180      0.003646
Li	      5.83213      5.12209      0.11389         0.019713      0.009095     -0.007682
Li	      5.83713      8.53773      2.54440        -0.000977      0.002926      0.002068
Li	      2.85669      8.45891      2.50393        -0.007144      0.000554      0.000736
Li	      1.43102      6.12986      2.51418        -0.006710      0.001076      0.000380
Li	      4.32813      5.94065      2.55415        -0.000523      0.006381      0.000002
Li	      4.48310      4.35020      4.92125        -0.000281     -0.000292      0.002124
Li	      3.00261      6.90604      4.94007        -0.002521     -0.002695     -0.002229
Sc	      7.39242      9.36718      4.89457         0.003659      0.005916      0.001594
Ti	      4.33913      7.61612      0.29448         0.014568     -0.001411      0.001380
V	      1.55180      4.42650      4.84235        -0.011616     -0.016057     -0.010299
Cr	      1.46791      2.59566      0.00183         0.001171      0.000664      0.003819
Fe	      5.78319      6.86849      4.92840         0.008203     -0.003183      0.007233
Co	      2.95523      3.40786      2.41833        -0.008985     -0.009415     -0.001006
Cu	      5.83965      3.43977      2.39429        -0.000317     -0.006555     -0.002294
Cu	      3.06101      1.67903      4.83842        -0.003310      0.000623     -0.006303
Ni	      0.01259      0.01492      0.02793        -0.004747     -0.000564      0.003883
O	      2.89846      1.62657      1.04565         0.003400      0.002450     -0.001893
O	      5.97862      1.76461      1.17036        -0.010078     -0.003397      0.007219
O	      1.54001      4.13025      1.25344        -0.002246     -0.001680      0.007015
O	      4.32602      4.17342      1.44757        -0.005813     -0.004032      0.005905
O	      5.73109      6.92227      1.24993         0.004095      0.004201     -0.003832
O	      2.93043      6.89832      1.22446        -0.000384      0.002722     -0.005011
O	      1.45941      2.76198      3.52836        -0.007641      0.005002     -0.012074
O	      4.32753      2.55776      3.60856         0.008666      0.006121     -0.008740
O	      5.96809      5.16000      3.81347         0.006212     -0.006006      0.005058
O	      2.84933      5.04578      3.77026        -0.002591      0.003786     -0.003554
O	      4.42127      7.77264      3.82868        -0.005012      0.004001     -0.000560
O	      7.25818      7.69915      3.81281        -0.007344     -0.009309      0.000571
O	      6.08734      3.41393      6.00211         0.000899     -0.002113      0.004186
O	      3.02140      3.45840      6.04793         0.013207      0.000367      0.004048
O	      4.50622      6.02436      6.12337         0.000560      0.004307      0.000328
O	      7.47233      5.90493      6.09426        -0.002517      0.005353      0.005332
O	      3.01887      8.68732      6.10515        -0.003718     -0.009164     -0.000494
O	      6.03292      8.61643      6.26318         0.000708      0.011512     -0.002333
