# total energy = -222.60221760 eV
 
CRYSTAL
PRIMVEC
5.843243 -0.033514 -0.000870 
1.512820 7.915457 0.228137 
1.416989 2.839747 7.287857 
PRIMCOORD
36 1
Li	      0.07967     -0.12167      0.01118        -0.010975      0.012263      0.008018
Li	      2.93170      5.50635      7.33018         0.005639      0.006859      0.001339
Li	      4.40290      8.23650      7.40485         0.000175     -0.002464     -0.003015
Li	      2.99472      8.65352      2.50877        -0.003748      0.001889     -0.002192
Li	      1.56223      6.44638      2.62054        -0.008492     -0.013174      0.004729
Li	      4.32993      6.44935      2.62323        -0.011577      0.003366     -0.014880
Li	      4.38223      9.53926      5.09346        -0.000479     -0.004530     -0.006290
Li	      5.76073      7.16492      4.99105        -0.004866     -0.006630     -0.004727
Li	      3.10471      7.10823      5.08410         0.009442     -0.010281     -0.007631
Sc	      7.30289      9.67059      4.97289         0.002624     -0.005368      0.001093
Ti	      5.92451      5.34382      0.21281        -0.006473      0.012628      0.001649
V	      1.49533      4.61516      4.99826         0.005732     -0.004850      0.015466
Cr	      4.37402      2.61266      0.08682         0.004091      0.007006     -0.021923
Fe	      2.88898      3.66498      2.51807        -0.003587     -0.007487     -0.003815
Co	      5.83571      3.57978      2.53729        -0.007743      0.001342      0.006492
Cu	      4.33972      7.87585      0.21989        -0.020276     -0.004635     -0.008025
Cu	      4.32792      0.94240      2.45296         0.025245     -0.008422      0.000642
Ni	      4.36419      4.62313      4.96475         0.004944      0.006167      0.008843
O	      3.02550      1.91543      1.43795        -0.010199      0.000314      0.004707
O	      5.69149      1.92851      1.49024         0.006970     -0.006300     -0.007753
O	      1.36452      4.29323      1.33406         0.000055      0.005543      0.000383
O	      4.47815      4.27714      1.29990         0.021900     -0.001896      0.014105
O	      5.87933      6.81141      1.24814         0.006233     -0.018005      0.005248
O	      3.01210      7.07933      1.29517        -0.004897      0.002875     -0.002621
O	      1.40715      2.93363      3.70780         0.003548      0.002647     -0.008430
O	      4.40783      2.99130      3.71788         0.000187     -0.000237     -0.001144
O	      5.97418      5.13712      3.74574         0.021917     -0.003458      0.005022
O	      2.85439      5.31545      3.73387         0.003343      0.008905      0.002410
O	      4.51219      8.08215      3.73738        -0.014628     -0.004411      0.003236
O	      7.21175      8.09700      3.71654        -0.011744      0.000226     -0.002974
O	      5.80963      3.71819      6.21168         0.009008      0.000589      0.000280
O	      2.76707      3.70205      6.01911        -0.009287      0.013168      0.003371
O	      4.41304      6.20486      6.21567         0.012292      0.006086      0.000685
O	      7.23882      6.12951      6.15597        -0.004967      0.015657      0.008006
O	      2.82005      8.81595      6.25908        -0.009023     -0.000825     -0.006999
O	      5.97660      8.77290      6.25650        -0.000385     -0.004558      0.006694
