# total energy = -224.78014821 eV
 
CRYSTAL
PRIMVEC
6.046092 -0.027634 0.042316 
1.343764 7.566566 -0.079559 
1.627629 2.357952 7.159511 
PRIMCOORD
36 1
Li	      4.33450      7.50559      0.02721         0.002089     -0.000870     -0.002677
Li	      2.99365      5.00352      0.12334         0.003888      0.001057      0.001450
Li	      5.95406      8.24260      2.43001         0.014834     -0.004044      0.002674
Li	      1.68284      0.79980      2.41318         0.019765      0.007598     -0.015706
Li	      2.94183      3.42679      2.35923        -0.012548      0.005481     -0.001099
Li	      1.61868      5.77606      2.42439        -0.001135      0.000831     -0.001191
Li	      1.71029      4.13517      4.59399        -0.001385      0.001031      0.001117
Li	      4.34945      4.13905      4.61812        -0.007745      0.005775      0.000139
Li	      2.94728      6.60900      4.56248        -0.005050     -0.002076     -0.005959
Sc	      1.46071      7.45520      0.04178         0.014850      0.001856     -0.004740
Mn	      6.01319      6.59666      4.69826        -0.010166     -0.006618     -0.008444
V	      6.02273      4.71709      7.07476        -0.008305     -0.014220      0.011018
Cr	      3.10175      4.88973      7.05616         0.001542     -0.007217      0.008547
Cr	      5.93422      5.01909     -0.00478        -0.012431      0.018949      0.004399
Fe	      6.01852      3.31466      2.52865        -0.000576     -0.004238     -0.011299
Co	      7.43705      9.10373      4.73858         0.014759     -0.007308     -0.001171
Cu	      3.11049      1.66532      4.69844        -0.005129     -0.013530      0.008191
Ni	      4.37942      5.85980      2.35939         0.017312     -0.004986     -0.009327
O	      2.93682      1.81620      1.04004         0.011428      0.006701     -0.002747
O	      5.98203      1.75265      1.09062         0.004810     -0.003904     -0.007205
O	      1.30874      4.13486      1.06540         0.007078      0.000048     -0.003965
O	      4.58539      4.04226      1.13783         0.002624      0.004066     -0.001288
O	      5.88511      6.64380      1.12566        -0.001424     -0.010883      0.001954
O	      2.91150      6.71590      1.15903        -0.013852      0.006032      0.005861
O	      1.30196      2.39525      3.57124        -0.005216      0.009816     -0.017207
O	      4.72756      2.35164      3.71357         0.006476     -0.002745      0.002500
O	      5.99015      5.03784      3.56822        -0.008634      0.003314      0.015310
O	      3.02815      4.97526      3.49812        -0.007103      0.000129      0.003159
O	      4.61671      7.47455      3.72499        -0.003364     -0.005196     -0.006182
O	      7.35053      7.49965      3.71668        -0.000174      0.005807      0.013639
O	      6.13813      3.21309      6.07678        -0.000351      0.005322      0.004926
O	      3.04683      3.22291      5.95348        -0.003062      0.003119     -0.000620
O	      4.70432      5.70812      6.02617        -0.010100      0.008495     -0.008702
O	      7.46416      5.71487      5.98657        -0.003653      0.002341      0.004171
O	      2.80048      8.30868      5.79803        -0.000357      0.002817      0.014771
O	      6.17248      8.12759      5.90263         0.000304     -0.012751      0.005703
