# total energy = -217.72405301 eV
 
CRYSTAL
PRIMVEC
6.038257 -0.052194 0.073408 
1.392871 7.618808 -0.078143 
1.681443 2.385977 7.284078 
PRIMCOORD
36 1
Li	      5.97971      0.00126      0.20257         0.001049      0.007191     -0.005319
Li	      1.41815      2.55799      0.03494        -0.012311      0.003885      0.001689
Li	      6.03713      8.30092      2.42816         0.018944     -0.001832      0.008641
Li	      3.15740      8.26699      2.61007         0.006800      0.002110      0.010717
Li	      3.19777      3.23400      2.66065        -0.006072      0.011861      0.008886
Li	      1.53437      5.83044      2.48494         0.018870     -0.011051     -0.001009
Li	      4.47761      5.82185      2.52391         0.019720     -0.019472      0.000532
Li	      3.21917      1.55196      4.73784         0.005813      0.001654      0.013067
Li	      3.12326      6.62160      4.73541         0.010453     -0.016931      0.015320
Sc	      6.27409      1.52737      4.82200        -0.001122      0.019137     -0.001009
Mn	      5.89415      5.06571     -0.01423        -0.007840      0.000536     -0.012743
V	      2.80272      0.02561      0.25439         0.005319      0.016434      0.007120
Cr	      6.00662      6.62318      4.72270         0.019019     -0.012899      0.009387
Fe	      4.50389      2.53157      0.04754        -0.015927      0.012767     -0.017867
Co	      4.64417      4.09260      4.85088         0.018959     -0.010168      0.014879
Cu	      6.09510      3.29009      2.42393        -0.000671     -0.002585     -0.001999
Cu	      1.68292      4.12946      4.82999         0.000811      0.009243     -0.002469
Ni	      2.78830      5.03033     -0.08809        -0.002243     -0.008616     -0.000918
O	      2.98442      1.57049      1.13087        -0.000579     -0.013755     -0.008258
O	      5.88965      1.76319      1.15397         0.002070      0.022641     -0.004198
O	      1.19537      4.38206      1.07317        -0.004474      0.008728     -0.012309
O	      4.35676      4.28480      0.98554         0.010211      0.008834     -0.005554
O	      5.68257      6.87129      0.91295         0.010542     -0.005952      0.001336
O	      2.93527      6.83989      1.07452        -0.025277     -0.009976      0.010976
O	      1.76353      2.48293      3.78874         0.014903     -0.009848     -0.010859
O	      4.77512      2.54242      3.70839        -0.013471     -0.008867     -0.009488
O	      5.88087      4.95578      3.63629        -0.007931     -0.007905      0.002637
O	      3.15879      4.80425      3.87411        -0.018629      0.000597     -0.002665
O	      4.61242      7.47242      3.67694         0.005001     -0.015629      0.013613
O	      7.49340      7.45631      3.63244         0.004429     -0.008881      0.004284
O	      6.16489      3.38133      5.95677        -0.023167      0.008112     -0.005022
O	      3.54739      3.10054      6.13475        -0.017218      0.008808     -0.021801
O	      4.70299      5.68681      6.02157         0.001083      0.012805     -0.013009
O	      7.51278      5.75235      5.98657        -0.005250      0.011596      0.015392
O	      2.92346      8.28424      6.11745        -0.010739      0.003519     -0.000437
O	      6.15373      8.26199      6.08475        -0.001077     -0.006089     -0.001541
