# total energy = -222.13261764 eV
 
CRYSTAL
PRIMVEC
5.985172 -0.046007 0.091302 
1.293077 7.726419 0.080056 
1.731836 2.519422 7.290102 
PRIMCOORD
36 1
Li	      4.41600      2.53986      0.12262        -0.004278     -0.001893     -0.004254
Li	      2.84823      5.19836      0.11931        -0.004235     -0.002561      0.001243
Li	      5.88362      5.14321      0.33771        -0.002798     -0.003099      0.001044
Li	      5.95678      8.43353      2.50489         0.006733     -0.007097      0.005550
Li	      2.77371      8.49625      2.37864        -0.002309     -0.000211     -0.005885
Li	      1.42726      6.04904      2.48578        -0.000739     -0.006736     -0.003683
Li	      4.30655      6.11047      2.38039        -0.001505     -0.002442      0.003052
Li	      4.59431      4.25138      4.97557         0.003351      0.001485      0.002517
Li	      3.03210      6.78038      4.92141         0.001508     -0.000749      0.003046
Sc	      7.46121      9.28769      4.95158         0.012756      0.020715      0.013729
Ti	      4.48039      9.20139      4.89311         0.000362     -0.000868     -0.006813
V	      1.67439      4.32318      4.87663        -0.009841      0.005635      0.008973
Cr	      1.43258      2.61857      0.04188         0.010834     -0.003325     -0.025808
Fe	      5.97276      6.65728      4.99384        -0.011609     -0.010883      0.008108
Co	      3.01558      3.45705      2.31561         0.002583      0.002384     -0.004563
Cu	      3.07746      0.03520      0.16179         0.005615      0.007624     -0.001830
Cu	      5.89243      3.41058      2.49546         0.007596      0.012033      0.011902
Ni	      0.02453      0.00524      0.09592        -0.005402     -0.005729     -0.001158
O	      2.85635      1.83696      1.18893        -0.007539      0.004880      0.005679
O	      6.01487      1.76472      1.31678        -0.003145     -0.007933      0.003397
O	      1.38407      4.18800      1.31114        -0.009186      0.003341      0.002678
O	      4.28365      4.27175      1.40041        -0.005373     -0.003523      0.000453
O	      5.79471      6.86693      1.29153         0.003944     -0.011383     -0.001211
O	      2.93225      6.96706      1.20491        -0.013954      0.000774      0.006625
O	      1.81272      2.53890      3.79311         0.001681     -0.001239     -0.014508
O	      4.57633      2.47438      3.77242         0.005380     -0.005994     -0.003940
O	      6.14008      4.96116      3.90497         0.007478     -0.002943     -0.007678
O	      2.90591      4.97575      3.75269         0.004424      0.004625     -0.012350
O	      4.50565      7.70197      3.86069         0.001580      0.007122      0.005305
O	      7.37165      7.58218      3.87994         0.009112     -0.003369     -0.014033
O	      6.22996      3.29572      6.15587         0.005618      0.002317      0.004071
O	      3.08041      3.48397      6.09792        -0.008839      0.000065     -0.005237
O	      4.57971      5.96213      6.12605         0.006557      0.007987      0.000715
O	      7.58661      5.80939      6.14997        -0.002480      0.010732      0.008664
O	      3.07574      8.63663      6.05352        -0.004932     -0.004528      0.006126
O	      5.90079      8.51794      6.06608         0.001049     -0.005216      0.010073
