# total energy = -217.55827323 eV
 
CRYSTAL
PRIMVEC
5.964597 -0.039596 0.048464 
1.391316 7.730728 0.021593 
1.637584 2.524404 7.310602 
PRIMCOORD
36 1
Li	      5.90241      0.02900      0.19180         0.000716      0.004617     -0.003734
Li	      1.37372      2.67401      0.04032        -0.004448     -0.005183      0.004783
Li	      5.98360      8.48904      2.53471        -0.004889      0.004855      0.001390
Li	      3.09415      8.45270      2.73044         0.015803     -0.005806      0.007444
Li	      3.16243      3.30936      2.66300        -0.009297     -0.005813     -0.000074
Li	      1.52549      6.02647      2.48072         0.019373      0.000773      0.006943
Li	      4.43061      5.96069      2.58908         0.004250     -0.005943      0.002939
Li	      3.18563      1.60983      4.74523        -0.009761      0.001459      0.008970
Li	      3.08377      6.74345      4.81778         0.004013      0.003459     -0.001491
Sc	      7.54279      9.28244      4.89201        -0.009437     -0.004238      0.003895
Mn	      1.66481      4.19934      4.83719        -0.009297     -0.003863      0.001588
V	      2.79552      0.13966      0.28219         0.002094      0.002386      0.002927
Cr	      5.95988      6.76501      4.80499        -0.003386      0.004114     -0.010921
Fe	      4.47671      2.62186      0.04342         0.016341      0.008758     -0.010508
Co	      4.58496      4.20594      4.88747         0.000040     -0.002234     -0.005317
Cu	      5.81295      5.16360      0.05904        -0.000498     -0.003183      0.005704
Cu	      6.03539      3.37973      2.45416        -0.003783     -0.005149     -0.001391
Ni	      2.77799      5.12321     -0.02332        -0.003444      0.007771     -0.004136
O	      2.88526      1.70399      1.12163        -0.004187     -0.008478      0.004124
O	      5.81878      1.85587      1.19730        -0.003819     -0.004447      0.011442
O	      1.16764      4.47512      1.14177         0.002384      0.000103     -0.001161
O	      4.33925      4.36532      1.02198         0.008959      0.002615      0.006577
O	      5.61141      7.15489      1.04001        -0.004262      0.007883     -0.015796
O	      2.91698      6.99399      1.14540         0.009718      0.001163     -0.003965
O	      1.70252      2.53770      3.82584        -0.006155      0.016045     -0.004008
O	      4.70357      2.64455      3.74677         0.007267      0.011169     -0.005735
O	      5.89877      5.04800      3.71368        -0.003006     -0.002785      0.006449
O	      3.12054      4.92560      3.83309         0.000682     -0.002913      0.000782
O	      4.56487      7.63835      3.78014         0.006839     -0.018665      0.002233
O	      7.42234      7.63169      3.72108        -0.001172     -0.001893     -0.003351
O	      6.03008      3.44613      6.03357         0.001045      0.003750     -0.000470
O	      3.40615      3.26799      6.11586        -0.004685      0.002005      0.003455
O	      4.63408      5.83764      6.05853        -0.007613     -0.003896     -0.009425
O	      7.43793      5.75997      5.94134        -0.007450      0.000912      0.007994
O	      2.87514      8.47582      6.26417         0.000617     -0.001200     -0.005670
O	      6.05976      8.38826      6.16347         0.000444      0.001852     -0.002485
