# total energy = -218.02150624 eV
 
CRYSTAL
PRIMVEC
6.010318 -0.037675 0.034685 
1.404813 7.650958 -0.032359 
1.633320 2.451253 7.254073 
PRIMCOORD
36 1
Li	      7.37111      7.64686      0.13506         0.004509      0.001792     -0.000736
Li	      1.42437      2.59689     -0.00236        -0.002840     -0.004302      0.000323
Li	      5.98878      8.38928      2.45654        -0.002398     -0.002854      0.000165
Li	      3.10888      8.34227      2.64987        -0.002804      0.000151     -0.005857
Li	      3.07904      3.32084      2.56317        -0.000065     -0.007798      0.003564
Li	      1.58175      5.92847      2.47601         0.024381     -0.007390      0.012760
Li	      4.43425      5.93237      2.49197         0.011014      0.004235     -0.011096
Li	      3.14410      1.57203      4.75111        -0.005359     -0.001743      0.000150
Li	      3.10276      6.67057      4.77200        -0.002908      0.004508     -0.005685
Sc	      7.61648      9.16128      4.83855        -0.009046     -0.004749      0.001957
Mn	      6.03983      3.38525      2.39944        -0.017316     -0.023578      0.003798
V	      4.21218      7.70116      0.23854        -0.022674      0.004161      0.007711
Cr	      5.97417      6.69106      4.70701         0.014338      0.006754     -0.016633
Fe	      4.49467      2.57055      0.00166         0.017278     -0.003185      0.010294
Co	      4.59299      4.14736      4.81327        -0.004944     -0.022937     -0.004529
Cu	      5.90940      5.07050      0.00732        -0.005565      0.006433      0.002334
Cu	      1.64331      4.15118      4.81228        -0.014288     -0.008215      0.017733
Ni	      2.81921      5.05913     -0.04571         0.001156      0.014804      0.008634
O	      2.95076      1.61973      1.10522         0.007284     -0.013862     -0.011253
O	      5.88165      1.84615      1.17591        -0.005649      0.007133      0.001956
O	      1.29790      4.33504      1.19117         0.007286      0.011156     -0.017672
O	      4.37200      4.24154      1.06117         0.004379      0.003210     -0.005058
O	      5.68538      6.99865      0.92773         0.003743      0.002417     -0.002977
O	      2.94859      6.87184      1.13562         0.012408      0.001972     -0.015998
O	      1.62237      2.55496      3.70896         0.000841      0.002614     -0.002544
O	      4.73658      2.60417      3.64612         0.010584      0.020205      0.001949
O	      5.81177      5.01942      3.57057        -0.006458     -0.001809      0.005600
O	      3.10231      4.84639      3.85320        -0.007714      0.003349      0.000796
O	      4.57708      7.54611      3.67639         0.002799     -0.004362      0.016482
O	      7.45268      7.53345      3.63594        -0.000140      0.005577      0.008401
O	      6.11555      3.44164      5.89751         0.000680     -0.000820     -0.005719
O	      3.50765      3.16632      6.08022         0.000442      0.005458     -0.002085
O	      4.66114      5.75401      5.98625        -0.013698      0.010380     -0.003354
O	      7.48413      5.71472      5.88467        -0.003769      0.008925      0.003327
O	      2.97226      8.38339      6.11896         0.002238     -0.010976      0.009435
O	      6.05953      8.31409      6.04961         0.002275     -0.006656     -0.006174
