# total energy = -224.40171234 eV
 
CRYSTAL
PRIMVEC
5.964285 0.060999 -0.056988 
1.438575 7.642406 -0.065582 
1.520838 2.432291 7.222520 
PRIMCOORD
36 1
Li	      4.38609      7.64798     -0.00642        -0.004726      0.006435      0.006916
Li	      2.94455      5.03337      0.18221        -0.002271      0.006804     -0.009236
Li	      5.94656      8.35232      2.35718        -0.007438      0.001791     -0.000733
Li	      1.68894      0.82942      2.29649        -0.017336     -0.001939      0.010877
Li	      2.92326      3.52171      2.37407         0.002740      0.001266     -0.005763
Li	      1.61356      5.87501      2.46159         0.002320     -0.002771      0.000731
Li	      1.66475      4.26111      4.64650         0.003216     -0.000218     -0.005788
Li	      4.34120      4.27669      4.67750         0.008438     -0.007520      0.002679
Li	      2.94859      6.67733      4.59897         0.016536     -0.007248      0.005777
Sc	      1.48689      7.53164      0.05188        -0.000221     -0.003919      0.005821
Mn	      5.95601      6.74183      4.66781         0.005589     -0.000580     -0.003408
V	      5.86398      4.95726      7.15280         0.010962      0.001343     -0.002744
Cr	      2.98135      5.00751      7.12739        -0.014149      0.002253     -0.004467
Cr	      3.03197      1.71314      4.73707         0.012411      0.007744     -0.001536
Fe	      5.96293      3.47738      2.42258         0.008501     -0.002888     -0.008817
Co	      6.02067      1.64209      4.66942        -0.009818      0.003011     -0.016004
Cu	      5.89769      5.18196     -0.04570        -0.000247     -0.002094     -0.006694
Ni	      4.35332      5.93044      2.33982         0.000178      0.003540     -0.002914
O	      2.91073      1.82779      1.02244        -0.005830      0.002149      0.001542
O	      5.96455      1.83721      1.06290         0.001567      0.003410      0.003136
O	      1.34559      4.14285      1.14085        -0.006588     -0.009106      0.003906
O	      4.45592      4.05723      1.21857        -0.006946      0.006114      0.008618
O	      5.87333      6.75875      1.05233         0.000081      0.012547      0.007195
O	      2.94808      6.77400      1.13026        -0.007438      0.001981      0.004670
O	      1.41774      2.42951      3.61794        -0.000439     -0.001242      0.002877
O	      4.65045      2.45707      3.66479        -0.002969     -0.001524      0.001883
O	      5.92302      5.13006      3.58576         0.005460     -0.001649     -0.003526
O	      3.01192      5.04919      3.54191         0.002138     -0.001368     -0.010978
O	      4.57770      7.61532      3.64678        -0.001872     -0.004499     -0.004416
O	      7.28028      7.51232      3.62524         0.009882      0.007776      0.006658
O	      6.01831      3.48611      6.12753        -0.003158     -0.004911     -0.001272
O	      2.96126      3.30685      5.99846        -0.003569      0.005156      0.004720
O	      4.54838      5.90670      6.06904        -0.002731      0.001694      0.001052
O	      7.30311      5.98214      6.01776        -0.003759     -0.004816     -0.000946
O	      2.94429      8.56369      5.71087         0.005566     -0.004126      0.011132
O	      6.01234      8.42375      5.71746         0.005924     -0.012600     -0.000947
