# total energy = -103.77050872 eV
 
CRYSTAL
PRIMVEC
4.109392 -0.000161 -0.000149 
2.054767 4.039521 -6.352332 
2.054456 4.148612 2.191543 
PRIMCOORD
16 1
Li	      0.02072      0.04051      0.02061        -0.016104      0.010806     -0.001110
Li	      2.07541      2.02218      0.00402        -0.014058     -0.012298     -0.001966
Li	      4.10914      2.07864     -2.07194        -0.000002      0.007187      0.024101
Li	      4.10947      4.02350     -4.25531         0.000366     -0.007831     -0.024101
Ti	      4.21413      4.19215      0.08696         0.079741      0.081937      0.089160
Ti	      6.26845      6.05822     -4.22384         0.082087     -0.072139     -0.077377
Ni	      2.03620      4.05358     -2.09912         0.005974     -0.061454     -0.005259
Ni	      4.09074      6.19788     -2.03681         0.006121      0.061046      0.002243
O	      4.07988      4.10244     -1.90764         0.024116     -0.082296      0.079226
O	      6.13430      6.14878     -2.22847         0.022292      0.077673     -0.079220
O	      4.09718      2.15746      0.19036         0.016336      0.055246      0.123519
O	      6.12303      4.14512      0.01269        -0.129073      0.013798      0.102059
O	      2.03761      1.96663     -2.13448         0.016546     -0.244657      0.093096
O	      6.14670      4.13565     -4.19336         0.020365      0.244796     -0.096191
O	      4.06801      6.10545     -4.14908        -0.123369     -0.017154     -0.101508
O	      4.09765      4.05358      2.02569         0.008661     -0.054659     -0.126673
