# total energy = -224.18901806 eV
 
CRYSTAL
PRIMVEC
6.037647 -0.030711 0.029642 
1.420177 7.616973 -0.092081 
1.637799 2.386554 7.238905 
PRIMCOORD
36 1
Li	      1.45386      7.65694      0.09469        -0.004508     -0.006564     -0.004495
Li	      1.47581      2.50452      0.02476        -0.003071      0.005999     -0.006145
Li	      5.98093      8.30924      2.37247         0.000159     -0.004469      0.001289
Li	      3.18679      8.27934      2.45467        -0.002334      0.012746     -0.002962
Li	      3.10083      3.21500      2.57906         0.006383     -0.003132      0.003948
Li	      1.61009      6.00189      2.33498         0.016372     -0.010902      0.000360
Li	      4.42025      5.90286      2.43819        -0.001663      0.000293      0.004514
Li	      3.15185      1.58956      4.65612         0.004281      0.003422     -0.012212
Li	      3.12191      6.60593      4.68269         0.005595      0.010661     -0.001939
Sc	      7.67480      9.12727      4.67775         0.000545      0.001643     -0.006355
Mn	      5.92737      5.07469     -0.06213         0.010268     -0.005654      0.001431
Mn	      6.06429      3.35334      2.39513        -0.003297     -0.006814      0.001224
V	      2.89458      0.01909      0.12632        -0.003597     -0.001273      0.000798
Cr	      5.99027      6.63264      4.66848        -0.003841      0.003227      0.008845
Fe	      4.47003      2.51549      0.02571        -0.006564      0.000652      0.005293
Co	      4.58652      4.10489      4.80272         0.002554      0.002254     -0.002431
Cu	      1.66062      4.14432      4.80380        -0.007626     -0.007448      0.011415
Ni	      2.83154      5.06893     -0.05487        -0.001357     -0.005575      0.001305
O	      3.04071      1.62245      1.13464        -0.012462     -0.009052      0.001968
O	      5.93044      1.84151      1.18614         0.001713      0.001093     -0.000912
O	      1.21143      4.35517      1.09740         0.001746      0.006553      0.004348
O	      4.46953      4.27805      1.00062        -0.003281     -0.003114      0.002335
O	      5.79823      6.76678      0.88383        -0.003495      0.010944     -0.001129
O	      2.98798      6.79911      1.06223         0.003436     -0.002810     -0.003516
O	      1.62248      2.49139      3.65698        -0.017019     -0.002130     -0.007469
O	      4.74357      2.55974      3.63434         0.000150      0.002621      0.000849
O	      5.84595      4.93914      3.58817         0.003468     -0.005269     -0.003291
O	      3.13652      4.81289      3.80013         0.011375      0.014091     -0.011636
O	      4.60394      7.49804      3.63684        -0.003043     -0.004777      0.003855
O	      7.45919      7.46336      3.58080         0.002319      0.002038      0.000430
O	      6.08039      3.34938      5.95107         0.007547     -0.007767     -0.005255
O	      3.43590      3.12423      6.05140         0.002008      0.005063      0.003418
O	      4.66916      5.71266      5.96891        -0.001316     -0.003597     -0.002820
O	      7.47549      5.82175      5.99104        -0.001957      0.003532      0.012235
O	      2.91001      8.24584      6.06396         0.000391      0.000539     -0.001390
O	      6.14825      8.22662      6.01413         0.000122      0.002979      0.004097
