# total energy = -224.14489156 eV
 
CRYSTAL
PRIMVEC
5.999871 -0.026083 0.046160 
1.417219 7.694999 -0.024944 
1.649613 2.472032 7.309524 
PRIMCOORD
36 1
Li	      5.91547      0.03413      0.18328         0.006629      0.006455      0.004520
Li	      1.41300      2.62479      0.07294        -0.015061     -0.010864      0.009007
Li	      6.01123      8.41406      2.46445         0.009489     -0.004182      0.008452
Li	      3.14863      8.41217      2.66060         0.014156     -0.006029      0.002419
Li	      3.17137      3.33168      2.62500        -0.000020     -0.005549      0.017451
Li	      1.59548      5.93428      2.50218         0.024936      0.008899      0.000536
Li	      4.46218      5.91469      2.59136         0.024049     -0.004535      0.001331
Li	      4.60599      9.26689      4.72837        -0.004891      0.002880      0.011418
Li	      3.12556      6.73647      4.77444         0.014289     -0.010268      0.011414
Sc	      6.19426      1.55855      4.83214         0.002475      0.004618     -0.006954
Mn	      5.89066      5.13465      0.03430         0.000804      0.013967      0.002057
Mn	      1.68503      4.18818      4.84673         0.005109      0.011437     -0.005950
V	      2.78313      0.08080      0.23633        -0.000193      0.003088      0.025399
Cr	      5.99124      6.74295      4.76779         0.002596     -0.003824     -0.008588
Fe	      4.47735      2.58354      0.04872         0.005872     -0.005190      0.003930
Co	      4.62350      4.18497      4.87125        -0.010457      0.003144      0.015470
Cu	      6.06554      3.35273      2.42857        -0.016275     -0.014048     -0.005130
Ni	      2.80878      5.09544     -0.06471        -0.012938     -0.001840      0.001671
O	      2.92584      1.63257      1.10780        -0.004315     -0.003731     -0.022670
O	      5.84769      1.81466      1.16787        -0.004041      0.014218     -0.005390
O	      1.24927      4.41978      1.14253         0.001364      0.012366     -0.005663
O	      4.35092      4.32671      1.01322        -0.000512      0.023108     -0.011588
O	      5.64978      7.03207      0.95410        -0.015032      0.003074     -0.004142
O	      2.93528      6.94829      1.08707         0.007543     -0.010928     -0.008170
O	      1.72861      2.53368      3.82899         0.006767     -0.009387     -0.003604
O	      4.73414      2.63794      3.72252        -0.009819     -0.022435     -0.010455
O	      5.94553      5.02683      3.70944         0.002795     -0.002126      0.005561
O	      3.13929      4.91636      3.84244        -0.004656     -0.004956     -0.006897
O	      4.60405      7.58154      3.70726         0.007302     -0.002836      0.011520
O	      7.47283      7.58413      3.67346        -0.000431     -0.008182     -0.007750
O	      6.09343      3.43394      6.00447        -0.013339      0.006276      0.001786
O	      3.44144      3.24586      6.11041        -0.017026      0.016928     -0.006294
O	      4.67342      5.80241      6.03950         0.000475     -0.001286     -0.006915
O	      7.47249      5.79768      5.98631        -0.021636     -0.001419     -0.000775
O	      2.91780      8.41568      6.18702         0.000520     -0.001866      0.006892
O	      6.10164      8.39291      6.11352         0.013473      0.005025     -0.013898
