# total energy = -224.80133911 eV
 
CRYSTAL
PRIMVEC
5.995063 0.033308 -0.047874 
1.409608 7.569906 -0.062381 
1.530097 2.406060 7.163676 
PRIMCOORD
36 1
Li	      4.36449      7.58455      0.04448        -0.002044      0.004131     -0.003829
Li	      2.91480      4.99079      0.10716         0.002114      0.003236     -0.000753
Li	      5.92719      8.33368      2.35046        -0.001586     -0.000167      0.000209
Li	      2.98144      8.28909      2.41407        -0.011078     -0.009844      0.015825
Li	      2.92998      3.46479      2.32520        -0.004264      0.003991     -0.002650
Li	      1.60543      5.80573      2.42948         0.003632     -0.002969      0.000067
Li	      1.68639      4.22434      4.61722         0.000371     -0.000139      0.001846
Li	      4.31541      4.22362      4.62433         0.005413     -0.005343     -0.000668
Li	      2.96995      6.56959      4.58832         0.005758     -0.002600      0.000617
Sc	      1.49507      7.54181      0.10860        -0.000238     -0.001505     -0.006380
Mn	      5.98414      6.65240      4.62061         0.004295      0.005761      0.004315
V	      5.87810      4.83594      7.02082        -0.010770      0.004807     -0.005476
Cr	      5.94130      5.06745     -0.08674         0.000554     -0.021833     -0.018343
Cr	      3.03363      1.66506      4.74105         0.002448     -0.001280     -0.010851
Fe	      5.97596      3.34925      2.42998         0.004937     -0.004217     -0.006327
Co	      6.01556      1.63240      4.73389        -0.000317     -0.001725     -0.002272
Cu	      3.02055      4.90551      7.06815        -0.001849      0.020061     -0.013689
Ni	      4.37000      5.88002      2.31773        -0.001153      0.002608      0.002535
O	      3.00883      1.85790      1.01479         0.000626      0.003233     -0.004378
O	      5.76697      1.76374      1.17387         0.001949     -0.006157      0.002317
O	      1.30071      4.09512      1.07433        -0.005616      0.002792     -0.001781
O	      4.57667      4.13295      1.04860        -0.000104      0.010806      0.005349
O	      5.89793      6.66002      1.04484        -0.009456      0.014673      0.016821
O	      2.93969      6.73140      1.15052         0.004223     -0.005474      0.006470
O	      1.40543      2.37272      3.64995        -0.009200     -0.002177     -0.002848
O	      4.60902      2.43955      3.67843         0.009945     -0.010987      0.007115
O	      5.97507      5.07630      3.49134        -0.004585     -0.004606     -0.000162
O	      3.00425      4.99094      3.46861         0.012354     -0.000272      0.002591
O	      4.56250      7.54350      3.62685         0.001237     -0.012086      0.005921
O	      7.36286      7.60928      3.64241         0.000281      0.006457      0.008274
O	      6.02238      3.33735      6.00189         0.003785     -0.003221     -0.000136
O	      2.96897      3.23805      5.95605         0.005180     -0.003144      0.000146
O	      4.69287      5.86318      5.88244        -0.004567      0.003076     -0.001333
O	      7.31308      5.85601      5.87583         0.007977      0.003413     -0.000330
O	      2.85794      8.38157      5.83585        -0.009336      0.010233      0.002901
O	      6.03823      8.31522      5.73591        -0.000916      0.000472     -0.001110
