# total energy = -224.26987641 eV
 
CRYSTAL
PRIMVEC
5.962876 -0.012896 0.010866 
1.425110 7.724345 0.041262 
1.602305 2.554571 7.288740 
PRIMCOORD
36 1
Li	      7.33801      7.72377      0.16877        -0.001283      0.005203      0.005922
Li	      1.41974      2.65701      0.04305         0.001421     -0.001954      0.000240
Li	      5.95342      8.50858      2.51878        -0.001711     -0.002285      0.000860
Li	      3.08226      8.49241      2.69138         0.008467     -0.004533     -0.000365
Li	      3.04470      3.43683      2.55025         0.006218     -0.005702      0.003144
Li	      1.60198      6.04462      2.51218         0.020697     -0.010290      0.010669
Li	      4.40782      6.04021      2.57853         0.006181      0.000052     -0.002650
Li	      3.09705      1.60286      4.76447         0.005194     -0.004679      0.001879
Li	      3.08985      6.80050      4.82182         0.006862      0.001105     -0.002576
Sc	      7.55165      9.28843      4.91482        -0.023194      0.009124      0.006734
Mn	      5.98807      3.46048      2.41262        -0.012693      0.001788     -0.001141
Mn	      1.66455      4.22612      4.85901        -0.004670      0.014589      0.013792
V	      2.81391      0.09260      0.23248        -0.005517      0.009797      0.015098
Cr	      5.94498      6.82363      4.77634        -0.022401      0.010098     -0.008870
Fe	      4.47522      2.61502      0.01910        -0.009521      0.004059      0.006937
Co	      4.56244      4.25192      4.85394        -0.005818      0.007075     -0.003516
Cu	      5.89549      5.15054      0.07015        -0.022973      0.003839      0.002512
Ni	      2.83294      5.12463      0.00024         0.007994      0.003962     -0.005273
O	      2.91505      1.65477      1.08356        -0.008681     -0.008898     -0.010515
O	      5.84216      1.89270      1.20568        -0.003366      0.003969     -0.001993
O	      1.32975      4.37269      1.26057         0.003978     -0.006948      0.005138
O	      4.36361      4.28930      1.09790         0.000982     -0.003624     -0.003048
O	      5.66611      7.10704      1.01441         0.007662      0.002068     -0.008361
O	      2.96543      6.96908      1.15071         0.000285      0.007639      0.003491
O	      1.59168      2.61709      3.74720         0.000261     -0.004638     -0.010581
O	      4.68378      2.71041      3.67245         0.015932      0.007666     -0.008339
O	      5.88378      5.08773      3.67523         0.002303     -0.009248     -0.002502
O	      3.09464      4.98196      3.83289        -0.001496     -0.008260     -0.001261
O	      4.55702      7.66855      3.72967         0.006761     -0.008419      0.004028
O	      7.41728      7.67100      3.70147         0.007632     -0.014703     -0.012254
O	      6.01201      3.48327      5.99330        -0.000357     -0.000127     -0.001207
O	      3.37023      3.32254      6.06949        -0.005415      0.004719     -0.008364
O	      4.62126      5.87660      6.03109         0.001117      0.000523     -0.002067
O	      7.42021      5.81283      5.93050         0.005312     -0.005771     -0.002761
O	      2.96072      8.53174      6.21485         0.009826     -0.004403      0.007926
O	      6.00318      8.46596      6.10633         0.004011      0.007207      0.009275
