# total energy = -228.55807955 eV
 
CRYSTAL
PRIMVEC
5.994733 -0.065515 0.108810 
1.294854 7.646193 0.028984 
1.712552 2.364005 7.284993 
PRIMCOORD
36 1
Li	      6.03359      5.00237      0.13802        -0.001929     -0.004625     -0.006325
Li	      4.56211      0.74607      2.59436         0.006199      0.004017     -0.000787
Li	      1.46957      0.92070      2.39363        -0.005503     -0.000414      0.002966
Li	      3.00135      3.34935      2.53945         0.003987     -0.015034      0.004123
Li	      5.91664      3.28151      2.53341        -0.009427     -0.005646     -0.012598
Li	      6.15467      1.50777      4.87716        -0.001281      0.016851      0.002544
Li	      4.53228      4.02806      4.80650        -0.003237      0.003507      0.008111
Li	      2.97216      6.70848      4.92260        -0.000259     -0.001262     -0.000863
Li	      2.81631      5.08997      0.06831        -0.003791     -0.001217     -0.005993
Sc	      4.46663      2.62626      0.22625         0.008526     -0.002062     -0.015990
Ti	      4.38216      7.55117      0.14394         0.017665     -0.006013      0.019625
Mn	      1.47258      5.82807      2.41216         0.000612     -0.012514     -0.008966
V	      5.94291      6.66683      4.94970         0.018119     -0.019120      0.000239
Cr	      3.11761      1.56427      4.80167         0.006151      0.021222     -0.010378
Fe	      1.63897      4.09954      4.83710         0.003620      0.004880     -0.003078
Co	      0.02596     -0.01087      0.00666         0.001245      0.009019     -0.004198
Cu	      1.50702      2.67176      0.09853        -0.011521     -0.015800     -0.015250
Ni	      4.39381      5.77338      2.53622        -0.008672     -0.005362     -0.012004
O	      3.01108      1.46267      1.16628         0.011618     -0.009581      0.011759
O	      6.07940      1.67562      1.19307         0.010613     -0.006039      0.005696
O	      1.42549      4.30126      1.28029        -0.006894      0.005413     -0.005331
O	      4.43656      4.17710      1.36625         0.006039      0.012696      0.008621
O	      5.69923      6.72952      1.19696        -0.000027     -0.013535      0.010323
O	      2.88670      6.76637      1.26056         0.008477     -0.006139      0.000256
O	      1.69348      2.39875      3.79894         0.005387     -0.011720      0.005416
O	      4.46671      2.29351      3.78384        -0.004526      0.013945      0.004343
O	      6.05767      4.99775      3.77737        -0.010115      0.004103     -0.001588
O	      2.95088      4.98105      3.73029         0.002120      0.012426     -0.007043
O	      4.52568      7.45585      3.85387        -0.006820      0.006103     -0.012961
O	      7.27794      7.32006      3.74847        -0.009580     -0.001409     -0.000251
O	      6.10988      3.15585      6.21296        -0.002710      0.008782     -0.000440
O	      3.16581      3.21079      6.03139        -0.003218      0.013310      0.018719
O	      4.69247      5.80609      6.13819        -0.015565     -0.016274     -0.003364
O	      7.42934      5.76149      6.03947        -0.008154      0.013076      0.006027
O	      3.12555      8.44064      6.03785         0.001941     -0.007616      0.009549
O	      5.87881      8.37910      6.03228         0.000910      0.012034      0.009091
