# total energy = -229.08963034 eV
 
CRYSTAL
PRIMVEC
5.993812 0.003946 0.016885 
1.424774 7.595037 -0.004960 
1.581320 2.223805 7.264948 
PRIMCOORD
36 1
Li	      1.50213      2.40857      0.00821        -0.006643     -0.007791      0.002941
Li	      2.95674      8.25197      2.39154         0.000792     -0.009414      0.011718
Li	      1.66467      5.77491      2.58189         0.003194     -0.008781      0.000126
Li	      4.39296      5.76254      2.47613        -0.003547      0.000405      0.005350
Li	      6.07492      1.48575      4.98296        -0.004226     -0.006005      0.008050
Li	      1.68323      4.06042      4.90698         0.009676      0.008524     -0.005316
Li	      4.41320      4.04107      4.86133         0.003375      0.002069      0.004417
Li	      2.90093      6.49611      4.75266         0.002681     -0.014512     -0.007124
Li	      7.53608      2.26489      7.15395         0.006674      0.002814      0.000442
Sc	      6.01504      8.22148      2.35391         0.005808      0.004508     -0.012008
Ti	      6.13258      3.34047      2.59722         0.003454      0.001999     -0.008588
Mn	      2.96608      1.54673      4.82781        -0.007078      0.005578     -0.018719
V	      2.81305      5.11825      0.05516         0.000861      0.005766     -0.003537
Cr	      5.98312      6.53307      4.80814         0.004009      0.001817     -0.001813
Fe	      6.08951      4.68666      7.18908        -0.004145     -0.002841      0.010073
Co	      3.04828      3.33922      2.44972        -0.003941      0.002191     -0.000665
Cu	      5.91644      5.10663      0.01796        -0.001067     -0.000539     -0.018363
Ni	      4.55442      2.26706      7.21643        -0.018913     -0.008607     -0.008495
O	      3.08611      1.72179      1.24134         0.005475      0.000486     -0.009313
O	      5.97841      1.79231      1.26095        -0.000367      0.001956      0.006526
O	      1.63549      4.09768      1.33623         0.002472      0.000080      0.007863
O	      4.47535      4.13317      1.22967         0.000444     -0.000983      0.002147
O	      5.85344      6.68056      1.10570         0.007043      0.000971     -0.002387
O	      2.97589      6.56522      1.11344         0.003302     -0.003274     -0.008119
O	      1.54824      2.43899      3.53399         0.013430      0.004487      0.004775
O	      4.55869      2.51281      3.47644        -0.000105     -0.005167      0.009784
O	      6.02906      4.88997      3.59460        -0.000271      0.009176      0.000783
O	      3.04446      4.80968      3.57713         0.005497      0.011125      0.013204
O	      4.52588      7.52028      3.70168        -0.002944      0.007485     -0.005855
O	      7.36461      7.44138      3.68342        -0.008101     -0.002360      0.020531
O	      6.02688      3.14014      6.09275         0.007719     -0.008118     -0.006863
O	      3.04375      3.01042      6.00513        -0.006567      0.005353     -0.000962
O	      4.63189      5.76169      6.16665        -0.001131      0.008421     -0.008924
O	      7.38321      5.76715      6.07275         0.004058      0.005428      0.002298
O	      3.02796      8.05341      6.17326        -0.018014     -0.006934      0.000908
O	      5.74393      8.17069      5.98402        -0.002904     -0.005313      0.015114
