# total energy = -217.39167932 eV
 
CRYSTAL
PRIMVEC
6.021812 -0.054820 0.075171 
1.302467 7.526675 -0.090651 
1.648778 2.322251 7.202187 
PRIMCOORD
36 1
Li	      4.31003      7.36557      0.02674         0.004089     -0.004003      0.002282
Li	      2.94538      4.89109      0.22849         0.023993      0.011673      0.004046
Li	      5.87360      8.18624      2.42433         0.000252     -0.009435      0.007198
Li	      2.96714      8.14260      2.45858         0.006929     -0.004086     -0.008100
Li	      2.94408      3.39510      2.42789         0.004951     -0.001365     -0.002985
Li	      1.59823      5.72320      2.44005         0.002999     -0.003683      0.002389
Li	      1.69139      4.16211      4.68045         0.007761      0.003054     -0.011145
Li	      4.33967      4.12922      4.66456        -0.007163      0.004574     -0.006439
Li	      2.85692      6.53255      4.62621        -0.019260      0.005830     -0.009955
Sc	      1.40519      7.41352      0.05075         0.005238     -0.002970     -0.004132
Mn	      5.95167      6.56074      4.73048        -0.000641     -0.001540     -0.002769
V	      5.97098      4.65351      7.18396        -0.003908     -0.010824      0.022996
Cr	      3.08761      1.60051      4.75495         0.000832      0.009693     -0.001567
Fe	      6.06962      3.29134      2.51592        -0.000511      0.016026      0.012448
Co	      6.07392      1.53326      4.82963        -0.004793     -0.004960      0.006403
Cu	      3.10352      4.81511      7.12632         0.020995     -0.010730     -0.004649
Cu	      5.92416      4.96110      0.00759         0.014465     -0.009233     -0.008082
Ni	      4.35439      5.78471      2.36558         0.011879     -0.014357      0.003060
O	      3.22191      1.66930      1.15557         0.003961     -0.003564     -0.001276
O	      5.90528      1.75833      1.06445         0.005721      0.006072      0.005793
O	      1.46707      3.95115      1.19910        -0.018372     -0.003878      0.007849
O	      4.57119      3.98646      1.17565        -0.008027      0.001892     -0.005817
O	      5.83096      6.55772      1.12384         0.000293     -0.007548      0.000530
O	      2.85627      6.65686      1.15682        -0.004197      0.010376     -0.006610
O	      1.44416      2.32262      3.63004         0.005718     -0.001415     -0.004342
O	      4.70986      2.34560      3.71213        -0.010333      0.005189      0.005267
O	      5.97530      4.97937      3.60638        -0.006910     -0.013970     -0.020645
O	      3.00400      4.94153      3.54770        -0.006054     -0.002183     -0.002777
O	      4.51067      7.40151      3.67378        -0.011753     -0.001818     -0.006621
O	      7.29525      7.47188      3.71653        -0.003561      0.004702      0.001603
O	      6.14933      3.21190      6.11439        -0.004661      0.017865     -0.007263
O	      3.06464      3.19110      5.99316        -0.022130      0.004372      0.007176
O	      4.72365      5.63787      6.11244        -0.002056     -0.004675      0.006306
O	      7.26949      5.78585      5.96126        -0.008298      0.002207      0.017094
O	      2.79343      8.31921      5.74418         0.010508      0.006782     -0.001244
O	      5.87606      8.25081      5.72521         0.012046      0.005932      0.003977
