# total energy = -217.22819349 eV
 
CRYSTAL
PRIMVEC
6.022546 -0.038051 0.057528 
1.324581 7.538488 -0.086723 
1.635145 2.336700 7.169851 
PRIMCOORD
36 1
Li	      4.30964      7.45436      0.02131         0.000760     -0.005471      0.005531
Li	      2.99913      4.95312      0.17850        -0.001728     -0.000893     -0.000592
Li	      5.93682      8.21490      2.46152         0.008850     -0.007412     -0.007692
Li	      1.66530      0.80616      2.39192         0.006370     -0.005145     -0.011079
Li	      2.90610      3.35843      2.40812        -0.010872      0.015383     -0.001675
Li	      1.60559      5.74229      2.41942        -0.001430     -0.001132     -0.002860
Li	      1.68608      4.09291      4.59483        -0.000735     -0.000067     -0.000797
Li	      4.33900      4.10743      4.63598        -0.006133      0.007493     -0.006593
Li	      2.93107      6.57038      4.57401        -0.008132      0.003493     -0.001199
Sc	      1.42058      7.40577      0.04354        -0.000023      0.003946      0.001668
Mn	      6.01205      6.56127      4.72512        -0.004371     -0.001874      0.006101
V	      6.00057      4.69479      7.10233         0.003960     -0.011940     -0.005689
Cr	      3.08171      4.86675      7.05878        -0.003014      0.019445     -0.003768
Fe	      5.97639      3.31334      2.51013        -0.020277      0.005891     -0.000054
Co	      6.09914      1.53474      4.81644        -0.016356     -0.010296      0.009682
Cu	      5.92086      5.00213      0.00431         0.004514      0.005246      0.008084
Cu	      3.10672      1.61085      4.75886         0.012320     -0.003456      0.000711
Ni	      4.35709      5.82145      2.35479         0.006303     -0.005560      0.001757
O	      2.89629      1.78660      1.02854        -0.002972      0.000443     -0.001928
O	      5.94933      1.72588      1.09834        -0.004288     -0.007801     -0.008538
O	      1.31078      4.11903      1.07440        -0.005615     -0.005315     -0.008724
O	      4.51517      3.97163      1.19312         0.001295     -0.000601      0.000357
O	      5.83294      6.61305      1.14386         0.004771     -0.003209      0.003327
O	      2.88084      6.67822      1.15748         0.004485      0.001484      0.000339
O	      1.29178      2.41238      3.52413         0.000212     -0.000225     -0.007240
O	      4.68731      2.31778      3.75054         0.014342     -0.004585      0.001408
O	      5.96295      5.01372      3.58654        -0.007621     -0.000480      0.003383
O	      3.01520      4.94836      3.50771        -0.001035      0.008457      0.000630
O	      4.60934      7.43977      3.75266         0.003924     -0.005864     -0.000237
O	      7.33359      7.46314      3.72072         0.005726     -0.001730      0.009649
O	      6.13191      3.19265      6.08599         0.004217      0.007176      0.001426
O	      3.03838      3.18205      5.94952        -0.002785     -0.000055      0.003487
O	      4.69117      5.68629      6.04203         0.000313      0.003415     -0.004715
O	      7.44236      5.68806      5.99598         0.001022      0.004188      0.002790
O	      2.87564      8.33187      5.69576        -0.001922     -0.005590      0.003022
O	      6.19312      8.10727      5.90840         0.015923      0.002642      0.010030
