# total energy = -227.51635041 eV
 
CRYSTAL
PRIMVEC
5.910266 0.007945 -0.012490 
1.427068 7.872942 0.179870 
1.527323 2.656771 7.471593 
PRIMCOORD
36 1
Li	      4.47639      0.96301      2.66037         0.001256     -0.003578      0.003394
Li	      2.93764      8.72752      2.81181         0.002015      0.004292      0.004000
Li	      7.35802      6.42280      2.81980        -0.001446      0.003829      0.003459
Li	      4.45510      6.35848      2.80988         0.001455      0.009538      0.001190
Li	      4.42279      9.47703      5.03207         0.000196     -0.007839     -0.000223
Li	      7.42331      9.41079      5.17806         0.003277      0.003865     -0.007044
Li	      5.91746      7.20874      4.99015         0.003812      0.004478      0.004779
Li	      2.93442      7.22848      4.97628        -0.004487      0.001110      0.009544
Li	      5.90056      5.26380      0.08570        -0.003733     -0.002187      0.005558
Sc	      4.43721      4.40772      4.96841        -0.011970     -0.007111      0.019649
Ti	      4.45298      7.65913      0.27328         0.007572     -0.019121      0.019723
Mn	      4.41467      2.59235      0.08984        -0.019083      0.010035     -0.013563
V	      1.50850      4.45700      4.94005        -0.006580     -0.015188      0.003022
Cr	      1.53358      2.58992      7.41951        -0.025179      0.000281      0.009570
Fe	      4.40961      7.83759      7.53471         0.013018     -0.015142      0.006249
Co	      5.90074      3.55596      2.50108         0.011853      0.015335     -0.001841
Cu	      2.94142      3.54869      2.52440         0.009159      0.009642     -0.016055
Ni	      1.44823      2.57167      0.05664         0.004714      0.000653     -0.009669
O	      7.37452      8.00872      3.89868         0.000351      0.001844      0.004343
O	      2.98647      1.55586      0.96654         0.004874      0.000146     -0.006551
O	      5.81778      1.68473      1.08041        -0.003208     -0.002670     -0.006142
O	      1.53703      4.21143      1.31487        -0.010173     -0.004245      0.004141
O	      4.30500      4.35237      1.33361        -0.010038     -0.006462     -0.005571
O	      5.86086      7.01785      1.24476        -0.013648      0.006328     -0.015722
O	      2.93176      7.00870      1.23391         0.023893      0.000676     -0.015094
O	      1.54362      2.92059      3.82248        -0.000791      0.009240      0.006772
O	      4.37475      2.84156      3.63443        -0.000979     -0.007524      0.008006
O	      5.97746      5.24025      3.87956         0.010582      0.007817     -0.010846
O	      2.88902      5.39790      4.06699         0.001607      0.000699     -0.013709
O	      4.42304      7.94466      3.87289         0.003979      0.008375      0.006237
O	      5.95806      3.37264      6.17934        -0.001729     -0.004046      0.000089
O	      2.92493      3.50632      6.22583         0.012807      0.006073     -0.015495
O	      4.54203      6.08727      6.43020         0.000763     -0.012200      0.021940
O	      7.30945      5.85717      6.29419         0.001282     -0.004235      0.008214
O	      3.01233      8.76211      6.53779        -0.002852      0.004110     -0.011401
O	      5.86769      8.83920      6.52755        -0.002571      0.003181     -0.000951
