# total energy = -228.14309589 eV
 
CRYSTAL
PRIMVEC
6.065707 -0.075475 0.099398 
1.298992 7.589737 -0.039632 
1.716605 2.282601 7.268329 
PRIMCOORD
36 1
Li	      6.06980      4.91378      0.00854         0.000974     -0.001273     -0.003922
Li	      4.58059      0.76975      2.60152         0.011084      0.000677     -0.014910
Li	      1.50551      0.95660      2.43935        -0.012767      0.005832     -0.001117
Li	      3.14510      3.15809      2.56178        -0.007171      0.005965      0.003993
Li	      5.95082      3.14290      2.52913        -0.011571      0.009225      0.004421
Li	      6.12781      1.47642      4.74866        -0.006236      0.008208      0.008141
Li	      4.54542      3.96125      4.73679         0.001939     -0.001274      0.004911
Li	      2.94240      6.65793      4.83746         0.007428     -0.007574     -0.004910
Li	      4.54708      7.29590      7.24512        -0.005318      0.004933      0.000320
Sc	      1.32458      7.52825     -0.03566        -0.007000      0.014985     -0.010925
Ti	      3.12354     -0.01115      0.10810        -0.005147      0.011623      0.006792
Mn	      1.48278      5.73087      2.38904         0.000724      0.001715      0.002527
V	      5.99019      6.54115      4.91919         0.006975     -0.012522     -0.015700
Cr	      3.18966      1.47781      4.81318         0.019111      0.002725      0.010753
Fe	      1.59881      4.04162      4.72872         0.001547      0.004927      0.006133
Co	      4.53504      2.66342      0.20704         0.008255     -0.018236     -0.017042
Cu	      1.51383      2.67598      0.04858         0.001818     -0.015986      0.006310
Ni	      4.42152      5.72647      2.46389         0.001185     -0.000785      0.018858
O	      3.09945      1.49027      1.17638         0.004083     -0.007671      0.000469
O	      6.12112      1.72740      1.15057        -0.003156      0.002788     -0.005614
O	      1.42046      4.27642      1.19027        -0.000321      0.006687      0.010189
O	      4.45997      4.10336      1.23413        -0.006565      0.002028      0.004647
O	      5.74634      6.68368      1.13482         0.002597     -0.001212      0.008613
O	      2.88589      6.75823      1.21058        -0.001823     -0.007565     -0.004245
O	      1.67559      2.37279      3.78460         0.003857     -0.006064     -0.002651
O	      4.57758      2.30313      3.71711        -0.012820      0.009267     -0.001449
O	      6.10551      4.89590      3.70525         0.002281     -0.000622     -0.000723
O	      2.97155      4.91504      3.66476         0.002599     -0.007114     -0.005232
O	      4.58651      7.30918      3.79126         0.005378     -0.012972     -0.009320
O	      7.34783      7.19569      3.70669        -0.001452      0.002522     -0.001098
O	      6.21725      3.09235      6.26654         0.004577      0.001698      0.000239
O	      3.22946      3.13258      6.10461        -0.008888     -0.001844      0.003040
O	      4.77534      5.64064      6.10715         0.015595      0.003925     -0.001953
O	      7.47309      5.60881      6.00282        -0.016734     -0.000920     -0.000171
O	      3.08666      8.25347      6.01327         0.012118     -0.004008     -0.009226
O	      5.95966      8.24609      5.98800        -0.007156      0.007910      0.009849
