# total energy = -103.00851796 eV
 
CRYSTAL
PRIMVEC
-0.000056 2.090374 2.090587 
8.330389 -2.154703 2.154753 
-0.008849 4.290154 -4.290672 
PRIMCOORD
16 1
Li	      0.13694      0.17794     -0.17789         0.015989     -0.004923      0.004624
Li	      1.94009      2.23308     -0.14204         0.022148     -0.000026     -0.000187
Li	      4.02979      2.12309     -2.11954        -0.000295     -0.005801      0.004152
Li	      6.36798     -0.06931      2.15621        -0.014407     -0.021639      0.022834
Ti	      4.04364      2.06314      2.11696        -0.336110     -0.038796      0.038930
Ti	      6.38710      2.15489     -0.06342         0.321955      0.112776     -0.112745
Ni	      0.05682      2.02647     -2.02626        -0.045852      0.043550     -0.044584
Ni	      2.02010      4.20111     -2.11052        -0.028079      0.059343     -0.059282
O	      4.22355      1.98285      0.10794         0.021748     -0.062254      0.062458
O	      4.23185      0.08543      2.00487         0.062389      0.108460     -0.107335
O	      6.17667      0.11000     -0.10945        -0.075821      0.046177     -0.047084
O	      6.16717      1.99690     -1.99597         0.010458     -0.125939      0.125613
O	      8.28941     -0.02554      2.11610        -0.015565     -0.126152      0.126900
O	      2.07874      2.19899     -2.19874         0.117380     -0.117266      0.117207
O	      8.22524      2.06216      0.02912        -0.421077      0.061640     -0.060154
O	      2.19934     -0.05246      0.05274         0.365142      0.070850     -0.071347
