# total energy = -217.80502406 eV
 
CRYSTAL
PRIMVEC
6.108256 -0.081213 0.104400 
1.291676 7.528367 -0.078425 
1.694746 2.322267 7.144193 
PRIMCOORD
36 1
Li	      4.34836      7.37515      0.05088         0.006917     -0.002826      0.001890
Li	      2.98696      4.92868      0.19302         0.002208     -0.004781      0.005513
Li	      5.94538      8.15735      2.48250         0.004362     -0.006423      0.003775
Li	      3.03687      8.19709      2.50465         0.014869      0.008099     -0.016940
Li	      2.88195      3.37757      2.40937        -0.003114     -0.005113      0.008762
Li	      1.60759      5.75124      2.43060        -0.002255     -0.006918     -0.002468
Li	      1.73186      4.10576      4.61947         0.000754      0.000508     -0.000605
Li	      4.35991      4.09164      4.62718        -0.004923      0.007055     -0.001278
Li	      2.92945      6.53408      4.57178        -0.014437      0.004089     -0.017308
Sc	      1.45198      7.44552      0.06066         0.005313      0.000798     -0.007562
Mn	      6.06464      6.51347      4.73758        -0.006272      0.000134     -0.000132
V	      6.05939      4.59665      7.14103        -0.002484     -0.013214     -0.005979
Cr	      5.96273      4.93599      0.00419        -0.010680     -0.004200      0.015834
Fe	      6.06907      3.26890      2.54231         0.002733      0.002303      0.013336
Co	      6.19657      1.49168      4.83167         0.002779     -0.001351      0.001004
Cu	      3.14754      4.82557      7.03511         0.002866      0.001769     -0.000522
Cu	      3.18787      1.59735      4.75381        -0.001421      0.008127      0.011372
Ni	      4.40658      5.79428      2.38251         0.001422      0.011353     -0.004600
O	      3.23327      1.69426      1.18781         0.002010     -0.002692     -0.005344
O	      5.94715      1.75749      1.05669        -0.001025     -0.001251     -0.000828
O	      1.30029      4.10544      1.02284        -0.001183     -0.003581     -0.001194
O	      4.61303      4.00591      1.16361        -0.000581      0.004123      0.004163
O	      5.92746      6.55337      1.15110         0.010226     -0.004736      0.000733
O	      2.90143      6.69206      1.17376         0.003798      0.007301      0.012734
O	      1.31294      2.40178      3.49363         0.000570     -0.001918     -0.004047
O	      4.79397      2.28490      3.77148        -0.004785     -0.004276     -0.002349
O	      6.00753      4.97178      3.57892         0.009767      0.011985      0.000301
O	      3.02913      4.92907      3.50044        -0.015497      0.004306      0.000858
O	      4.61868      7.38462      3.75348        -0.002036     -0.004585     -0.012206
O	      7.40997      7.42679      3.72834        -0.009797     -0.009497     -0.011880
O	      6.23879      3.15382      6.10318        -0.003569      0.015108      0.012090
O	      3.13925      3.19316      5.94178        -0.004039     -0.001677      0.002220
O	      4.82367      5.59768      6.07907         0.011132     -0.004820      0.013505
O	      7.39359      5.67229      5.92493         0.003050     -0.013151     -0.006648
O	      2.82985      8.31123      5.73806         0.000038      0.005746     -0.004477
O	      6.24409      8.05387      5.93633         0.003283      0.004207     -0.001725
