# total energy = -227.59025585 eV
 
CRYSTAL
PRIMVEC
6.017400 -0.003797 -0.018816 
1.437310 7.746809 -0.076276 
1.541637 2.372388 7.394508 
PRIMCOORD
36 1
Li	      5.99148      8.37443      2.58994        -0.000955     -0.003058     -0.009098
Li	      2.95862      8.27085      2.60272         0.002159      0.005836     -0.002698
Li	      7.42715      6.17232      2.43449        -0.006720      0.002096     -0.009922
Li	      4.52517      6.18257      2.41384        -0.009315      0.008789      0.001166
Li	      4.44631      9.14036      4.82277        -0.006449     -0.000184      0.002787
Li	      7.42842      9.22723      4.67949        -0.005419      0.000828     -0.016523
Li	      5.97428      6.99129      4.66422        -0.003944      0.003650      0.007267
Li	      2.94996      7.05466      4.68893        -0.011677      0.002036      0.002290
Li	      6.02661      5.17453     -0.06356        -0.006504     -0.006688     -0.009982
Sc	      3.03347      3.27744      2.42343         0.000691      0.007600      0.008620
Ti	      4.54817      7.58146     -0.10077         0.021901     -0.013260     -0.009737
Mn	      4.50973      2.57601     -0.04380        -0.001483     -0.021255      0.017700
V	      1.49032      4.26895      4.76524         0.005949     -0.000534     -0.006083
Cr	      1.56320      2.33727      7.36772        -0.026894      0.008462     -0.001475
Fe	      4.45013      7.50678      7.30860         0.008114     -0.012339      0.005199
Co	      6.00166      3.35771      2.38577         0.007566      0.010617     -0.007083
Cu	      4.52361      4.23040      4.86907        -0.002984      0.012497     -0.007506
Ni	      3.02471      4.92781      7.35335         0.002821     -0.008208      0.012358
O	      7.47425      7.66055      3.59458        -0.000753      0.004949     -0.003234
O	      3.05795      1.70092      1.05471         0.006455      0.000016     -0.003188
O	      5.91865      1.74973      1.02100         0.003141     -0.007503      0.001282
O	      1.51942      4.24322      1.22361         0.009467     -0.001937      0.001904
O	      4.38069      4.34323      1.23015         0.002602     -0.003665      0.004925
O	      5.91593      6.96018      0.99393        -0.009713      0.000505     -0.011517
O	      3.01309      6.94915      0.98332        -0.002935     -0.007112      0.000213
O	      1.51946      2.67333      3.80118         0.005087      0.008972      0.003327
O	      4.55512      2.68268      3.64783         0.011847     -0.000098      0.000057
O	      6.13867      4.96278      3.82750         0.006793      0.012040      0.003920
O	      2.81601      4.97912      3.83393         0.004801      0.004924     -0.000760
O	      4.47166      7.64568      3.61037        -0.003152      0.008568      0.003700
O	      6.08459      3.07012      6.18908        -0.002234     -0.001228     -0.000011
O	      2.96460      3.21075      6.18748         0.003426     -0.004043      0.001905
O	      4.61747      5.72559      6.25472        -0.005001      0.000682      0.011375
O	      7.46843      5.54861      6.11862         0.001196      0.004388      0.001905
O	      3.06814      8.36690      6.27782         0.004701     -0.012028     -0.002091
O	      5.94306      8.44811      6.23504        -0.002586     -0.004316      0.009007
