# total energy = -229.32881068 eV
 
CRYSTAL
PRIMVEC
5.857107 0.040874 -0.014885 
1.538616 7.812040 0.077322 
1.440258 2.798238 7.317600 
PRIMCOORD
36 1
Li	      5.91566      5.32762      0.02675        -0.001726     -0.003460     -0.002028
Li	      5.88849      8.62149      2.52474         0.018685     -0.006144     -0.008433
Li	      2.96425      8.62736      2.49482        -0.008592     -0.006086      0.006610
Li	      5.87319      3.72413      2.51242        -0.010788      0.001452     -0.002203
Li	      4.48902      6.33051      2.66958        -0.004051     -0.005469      0.004255
Li	      4.45036      4.64521      4.80707         0.007808     -0.003496     -0.002403
Li	      5.88941      7.13211      4.77345         0.001808     -0.005913     -0.000686
Li	      3.04952      7.08840      4.85682        -0.008638      0.011604     -0.006838
Li	      2.93814      5.25882      0.10953         0.007903     -0.006063     -0.006700
Sc	      7.33308      4.55745      4.90067        -0.007935     -0.007467     -0.010955
Ti	      4.38126      2.73163      0.01177        -0.025120     -0.009707      0.010295
Mn	      7.35986      9.57801      4.82945         0.014453      0.004376     -0.006820
V	      2.97565      3.54997      2.44233        -0.003558     -0.006272     -0.021289
Cr	      7.37053      6.27970      2.48203        -0.007140     -0.002111      0.005863
Fe	      4.44161      9.49645      4.91389        -0.005677      0.024921      0.012721
Co	     -0.01717     -0.02069     -0.00882        -0.021343     -0.009405     -0.009299
Cu	      1.46586      2.60228      0.04791        -0.002346     -0.003123      0.001711
Ni	      4.44867      7.75799      0.09673         0.013155      0.004760      0.007134
O	      2.96697      1.91096      1.25201         0.003761     -0.004864     -0.000878
O	      5.85647      1.67912      0.99149         0.015501      0.002387      0.005347
O	      1.64566      4.41357      1.50077        -0.011068      0.000801      0.003631
O	      4.39478      4.19032      1.25814         0.005115      0.007419      0.002736
O	      6.01982      7.04470      1.20547        -0.006814      0.010899      0.004017
O	      2.87820      6.99375      1.18675         0.023100     -0.003952      0.002385
O	      1.42502      2.71444      3.72859        -0.001632     -0.001915      0.006038
O	      4.27264      2.75750      3.65402         0.006383      0.000778     -0.002477
O	      5.97035      5.39293      3.66443        -0.005977      0.006839      0.000448
O	      2.94569      5.23409      3.62099         0.009086      0.002249      0.006490
O	      4.42404      7.99392      3.79163        -0.005751     -0.000818      0.007932
O	      7.39088      7.89481      3.66100         0.004226     -0.000571     -0.001790
O	      5.86767      3.72375      6.21964        -0.004466     -0.002464      0.002908
O	      2.84181      3.41816      6.11251         0.016105     -0.009133     -0.007956
O	      4.41773      6.16084      6.24987        -0.011301     -0.000739      0.007042
O	      7.27609      6.19637      6.22995         0.011378      0.011539      0.001187
O	      2.90814      9.00950      6.17226         0.000454     -0.002263     -0.009093
O	      6.01336      8.95339      6.04439        -0.004996      0.011411      0.001095
