# total energy = -91.83235606 eV
 
CRYSTAL
PRIMVEC
-0.002488 2.078648 2.086751 
6.106398 0.041278 -2.134843 
-1.990579 6.322457 -4.254096 
PRIMCOORD
16 1
Li	      2.05477      2.12290     -0.07930        -0.001934      0.015293      0.021597
Li	      0.18586      4.35389     -0.21756         0.021562      0.012481      0.009902
Li	      1.99559      4.26899     -2.19948        -0.011046     -0.012639      0.006970
Li	      1.98131      6.16992     -4.08391        -0.002328      0.005729     -0.026673
Mn	     -1.95645      6.31954     -4.25198         0.010780      0.013555     -0.022883
Mn	      4.00472      2.14760     -2.16930        -0.069340      0.001499      0.008118
Ni	      4.04985      4.21765     -4.22798        -0.012496     -0.008494     -0.010121
Ni	      0.11209      6.26858     -2.11080         0.061186      0.014695     -0.027247
O	     -0.10471      4.23635     -2.16659         0.123930     -0.103746      0.097421
O	     -0.04774      1.95826      0.12554        -0.018102     -0.021999      0.015773
O	      4.05270      6.45620     -4.39889        -0.069661      0.081762     -0.084234
O	      4.14285      4.11883     -2.05468        -0.002495     -0.095804      0.097537
O	     -0.09975      6.29227     -4.21566        -0.083004      0.088616     -0.101534
O	      4.15222      2.25459     -0.19672         0.008959      0.021886     -0.012732
O	      2.12541      6.33960     -2.17870        -0.046911     -0.022269      0.019863
O	      2.20666      2.09753     -2.12740         0.090899      0.009436      0.008241
