# total energy = -229.62737646 eV
 
CRYSTAL
PRIMVEC
5.892028 0.012561 -0.015726 
1.401020 7.764242 -0.016653 
1.407603 2.862822 7.287994 
PRIMCOORD
36 1
Li	      4.39864      1.11156      2.50178         0.004451      0.003913      0.001640
Li	      5.81547      3.53382      2.53167        -0.002812     -0.003316      0.004011
Li	      1.40031      6.06007      2.50667         0.006391     -0.012142     -0.007063
Li	      2.91926      1.86268      4.68219        -0.000729     -0.015479     -0.002104
Li	      1.39750      4.45739      4.73091        -0.009319      0.005780     -0.000836
Li	      4.35545      4.36788      4.76405        -0.005008     -0.003804     -0.002843
Li	      2.86244      7.03450      4.78359        -0.003466     -0.004420     -0.000903
Li	      4.38169      2.92174      7.20550         0.003982      0.001566     -0.003888
Li	      4.36447      2.66010      0.10011        -0.002181      0.009627      0.005873
Sc	      4.35425      6.13888      2.48586        -0.008222     -0.004917      0.002741
Ti	      2.82961      5.41622      7.23783        -0.001819     -0.001167      0.003940
Mn	      4.32820      8.10338      7.25702         0.000872      0.005637      0.000675
V	      7.22206      2.85156      7.23778         0.015807      0.002164     -0.004499
Cr	      2.84308      3.52777      2.51121        -0.010040      0.009738      0.000488
Fe	      5.85670      7.06737      4.81462        -0.008131     -0.001590      0.000361
Co	      5.83291      1.95055      4.76119        -0.000791     -0.013676     -0.012029
Cu	      5.88274      5.14685     -0.02089         0.008452     -0.003025     -0.005282
Ni	      2.82894      8.70675      2.45744        -0.010790     -0.003048     -0.003716
O	      2.78143      1.90593      1.21168         0.016543      0.000519      0.006637
O	      5.90243      1.66684      1.04649        -0.006958      0.000166     -0.004903
O	      1.34021      4.23616      1.17778         0.004238      0.009560      0.005619
O	      4.14475      4.39961      1.24223         0.009526     -0.002201      0.002432
O	      5.95120      6.93563      1.05940        -0.006209     -0.009000      0.013330
O	      2.88197      6.92596      1.08961        -0.000679      0.006090     -0.003494
O	      1.36610      2.65423      3.60877         0.004443      0.000447     -0.000037
O	      4.31406      2.76539      3.59792        -0.001792     -0.004263      0.007955
O	      5.82642      5.45754      3.71653        -0.014549     -0.011490     -0.002097
O	      2.87967      5.23658      3.55703         0.009450     -0.001546     -0.001137
O	      4.36916      7.83676      3.61740        -0.003461      0.002249     -0.006299
O	      7.27123      8.03735      3.75284        -0.002130      0.004750      0.008439
O	      5.92912      3.45938      6.00847        -0.010714      0.005147     -0.006469
O	      2.81119      3.82325      6.24679         0.012343      0.006743      0.005219
O	      4.27968      6.41315      6.18735         0.005372      0.000572      0.000810
O	      7.28518      6.33077      6.15706         0.006838      0.005727      0.005865
O	      3.09422      9.04551      6.11377         0.012602      0.002785     -0.012276
O	      5.96950      8.79219      5.99057        -0.011510      0.011905      0.003842
