# total energy = -229.14464755 eV
 
CRYSTAL
PRIMVEC
5.802156 -0.040238 0.081988 
1.587878 7.895761 0.251393 
1.271346 3.108744 7.424013 
PRIMCOORD
36 1
Li	      2.76803      2.17057      5.15308         0.003116     -0.016647      0.003898
Li	      4.33437      0.97477      2.44890        -0.002577      0.014883     -0.000202
Li	      2.88680      5.11680      0.09641         0.015972      0.003315      0.010310
Li	      5.86142      5.30829      0.34561        -0.006287      0.000938      0.000416
Li	      4.40450      6.31298      2.63481        -0.010339      0.005766      0.006316
Li	      2.75865      5.52295      7.33123         0.007133     -0.008908     -0.000867
Li	      1.44331      4.74729      5.14572        -0.001587     -0.016095     -0.003117
Li	      4.24476      4.67562      5.16209        -0.011249     -0.008703      0.008178
Li	      0.04839      0.06624      0.00807         0.003875      0.005790     -0.004933
Sc	      2.94320      3.82508      2.71646         0.005771     -0.003086     -0.024814
Ti	      1.50243      1.04785      2.44019         0.000143      0.018644     -0.011354
Mn	      4.44534      2.70862      0.23320        -0.004246     -0.010575      0.012579
V	      5.65453      2.04393      5.14155        -0.022517     -0.002481      0.005261
Cr	      5.75630      7.23879      5.08276        -0.016658      0.020010      0.012687
Fe	      7.16756      6.30431      2.63980         0.002122      0.005039      0.000771
Co	      2.87383      7.19315      5.11665         0.003205      0.003948      0.016318
Cu	      4.45808      7.83492      0.31503        -0.019172     -0.003497     -0.016983
Ni	      5.80287      3.73250      2.63854         0.012134     -0.015049      0.000987
O	      2.85154      3.79008      6.32160         0.017911     -0.000754      0.007624
O	      5.87278      8.97126      6.14676         0.002444     -0.003385     -0.006285
O	      2.74236      9.03141      6.16400         0.015850      0.001810      0.006783
O	      7.27822      8.08741      3.93442        -0.006571     -0.016931      0.002117
O	      4.31703      8.11223      3.89751         0.020313     -0.006214      0.019291
O	      2.95671      7.37418      1.62869        -0.003640     -0.019154     -0.013484
O	      5.86784      7.14400      1.46100         0.020911      0.004192     -0.004177
O	      7.06039      6.37490      6.35236        -0.005760     -0.001783      0.013878
O	      4.40017      6.46910      6.35449        -0.000954      0.004472     -0.015478
O	      2.81961      5.52580      3.86409        -0.006263     -0.003403     -0.014769
O	      5.81019      5.58877      3.91091         0.003758     -0.005301     -0.001158
O	      4.34958      4.47375      1.41871         0.006960      0.004421     -0.012068
O	      1.50042      4.68374      1.50403         0.003710     -0.001120     -0.008218
O	      5.64712      3.49865      6.16974        -0.008725      0.012504      0.020713
O	      4.43720      2.81079      3.86071        -0.020284      0.002913      0.006921
O	      1.32118      2.68249      3.72823         0.003537      0.016841      0.000876
O	      5.82428      1.92422      1.40041        -0.000483      0.009676     -0.003732
O	      2.87433      2.00052      1.47351        -0.001554      0.007925     -0.014284
