# total energy = -229.09614424 eV
 
CRYSTAL
PRIMVEC
5.812007 -0.027329 0.062904 
1.607548 7.850656 0.194179 
1.256381 3.046725 7.411242 
PRIMCOORD
36 1
Li	      2.75582      2.14919      5.10162         0.002025     -0.001234     -0.002228
Li	      4.32005      0.96077      2.41430         0.002019      0.019668      0.004467
Li	      2.89261      5.06613      0.11517         0.010622      0.006852      0.008571
Li	      5.90880      5.25185      0.25498        -0.006124      0.014641      0.001989
Li	      4.39281      6.18727      2.52862        -0.006418     -0.004102      0.003049
Li	      2.76432      5.47058      7.31354         0.013632      0.011056      0.010347
Li	      1.48436      4.63510      5.09735         0.003462     -0.001660     -0.018771
Li	      4.17678      4.55347      5.09021         0.002977     -0.015273      0.003609
Li	      1.31992      3.07557      7.38970        -0.012871      0.009905     -0.011454
Sc	      5.73628      7.14509      5.01722         0.013244      0.003864      0.015523
Ti	      1.45882      1.05983      2.42118         0.011681      0.010371     -0.009873
Mn	      4.45176      2.68056      0.21795        -0.013884      0.001261     -0.002362
V	      5.64919      2.06539      5.10625        -0.028019      0.003369      0.002245
Cr	      2.92359      3.72606      2.65786         0.006271     -0.001714     -0.013078
Fe	      7.23127      6.23760      2.55897         0.000494      0.010792     -0.008563
Co	      2.86647      7.13559      5.07653         0.002717     -0.008641     -0.001622
Cu	      4.48813      7.76652      0.24701         0.009699     -0.001876     -0.015744
Ni	      5.80140      3.73947      2.61827         0.012177      0.002797     -0.001714
O	      2.85195      3.73224      6.32011         0.001598     -0.001380      0.000889
O	      5.91241      8.99411      6.11273         0.006646     -0.004554      0.000802
O	      2.74459      8.98734      6.10450         0.003137     -0.002539      0.010884
O	      7.33324      8.08324      3.84459         0.000178      0.006760      0.005226
O	      4.28100      8.09002      3.84118         0.000269     -0.014828      0.015073
O	      2.98942      7.32940      1.56084        -0.010926     -0.014039      0.011105
O	      5.91127      7.07530      1.38515        -0.007709      0.000301      0.010584
O	      7.10561      6.32111      6.36543        -0.005798      0.001781     -0.015436
O	      4.36294      6.39687      6.36626        -0.001968      0.006265     -0.021741
O	      2.83545      5.43881      3.77875        -0.000029      0.015347      0.015324
O	      5.84700      5.51634      3.80721         0.003097     -0.011446     -0.006309
O	      4.30818      4.43487      1.43266         0.005085     -0.009982     -0.008784
O	      1.55100      4.58947      1.48661        -0.014178     -0.011110     -0.011712
O	      5.66742      3.52240      6.13977        -0.004913      0.013330      0.021552
O	      4.40262      2.83374      3.83464         0.008186     -0.016799      0.000727
O	      1.34939      2.72221      3.70878        -0.005548      0.008168      0.001346
O	      5.81884      1.91162      1.38837         0.002668     -0.004419      0.001227
O	      2.89466      2.04149      1.49449        -0.003498     -0.020932      0.004852
