# total energy = -228.83299394 eV
 
CRYSTAL
PRIMVEC
6.056514 -0.006602 0.001494 
1.559127 7.656663 -0.029217 
1.478383 2.340532 7.304242 
PRIMCOORD
36 1
Li	      6.22668      8.39122      2.47832         0.001561      0.005029     -0.000011
Li	      2.80070      8.32699      2.37271         0.005449      0.002486      0.005883
Li	      2.95278      4.92265      0.08088         0.009139     -0.002853      0.005123
Li	      7.75542      7.38262      7.25469         0.007083      0.005273     -0.001790
Li	      3.06196      6.75567      4.80806        -0.002258      0.006071     -0.001187
Li	      1.51511      5.86873      2.36966        -0.010588      0.003134     -0.014525
Li	      4.56893      5.89738      2.45934        -0.008908     -0.003619      0.001421
Li	      1.42485      2.49533      0.05990         0.008235      0.003389     -0.002685
Li	      6.06119      0.02727      0.02281        -0.002895      0.000501      0.003443
Sc	      4.42689      9.12993      4.86048         0.000747      0.005513      0.001959
Ti	      1.67976      4.29209      4.84043         0.002167     -0.012471      0.003129
Mn	      3.06079      3.28049      2.30844        -0.005979     -0.008522      0.005718
V	      4.69762      7.54093      0.22032         0.008828      0.003485      0.014058
Cr	      6.10060      6.69741      4.81541        -0.008593      0.002151      0.003524
Fe	      6.07817      3.34574      2.29033        -0.000594     -0.008986     -0.008893
Co	      6.00072      1.55966      4.87458         0.006848      0.004794      0.002724
Cu	      4.54288      4.17665      4.92445        -0.001853      0.008302     -0.005111
Ni	      4.60113      2.56004     -0.00911         0.003392     -0.010169      0.004961
O	      6.13638      8.49366      5.98098        -0.001487     -0.002890      0.007631
O	      2.89425      8.41247      5.95076         0.005371     -0.001083      0.000570
O	      7.53603      7.62307      3.74214        -0.002937      0.009292     -0.000163
O	      4.66557      7.50913      3.69358        -0.001049      0.004130      0.003083
O	      3.27000      6.83091      0.96756        -0.005846     -0.004395     -0.000579
O	      5.98882      6.82869      1.10317        -0.006267     -0.001882     -0.010663
O	      7.50059      5.73806      5.99435        -0.004651      0.007500     -0.003873
O	      4.73649      5.80316      5.99831        -0.001852     -0.004431     -0.000184
O	      3.01452      4.94165      3.75379        -0.002379      0.001817     -0.005982
O	      6.28685      5.01244      3.67854        -0.001475      0.004338      0.003019
O	      4.62498      4.18746      1.27420        -0.000004     -0.006714     -0.000788
O	      1.50383      4.17338      1.25664        -0.000115      0.001473     -0.002189
O	      2.72744      3.26059      6.04159         0.007100     -0.003256     -0.003326
O	      5.82173      3.11291      6.09614        -0.000278     -0.009405      0.005207
O	      4.59200      2.51337      3.74580         0.005427     -0.007396     -0.002035
O	      1.36261      2.49322      3.75104        -0.002487      0.011246     -0.005106
O	      6.00235      1.70762      1.26317         0.005790      0.010410      0.002631
O	      3.04594      1.51694      1.01545        -0.004642     -0.012262     -0.004989
