# total energy = -228.84355910 eV
 
CRYSTAL
PRIMVEC
6.032061 -0.006255 0.030498 
1.421125 7.583708 -0.006876 
1.604001 2.213588 7.249808 
PRIMCOORD
36 1
Li	      1.52888      2.33106      0.05737        -0.004272      0.009510     -0.003532
Li	      2.97895      8.26415      2.32940         0.004628     -0.001908      0.007769
Li	      1.66255      5.76552      2.61922        -0.001512      0.003229     -0.006912
Li	      4.41537      5.77446      2.53865         0.002651      0.006004     -0.010241
Li	      6.11422      1.48441      4.93147        -0.005594      0.006242     -0.001064
Li	      1.68254      4.07740      4.88475         0.008254      0.001906      0.006998
Li	      4.44479      4.08388      4.87841         0.004155     -0.003095      0.001112
Li	      2.89240      6.46716      4.72163        -0.001984      0.002021      0.000679
Li	      7.59052      2.25341      7.14599        -0.000875     -0.007944      0.000287
Sc	      6.06158      8.16375      2.37436         0.001119     -0.005141      0.005951
Ti	      6.12998      3.36055      2.60225         0.003987      0.021317      0.010812
Mn	      2.99516      1.51507      4.83825        -0.015439     -0.010106     -0.003001
V	      2.80611      5.11514      0.02848        -0.018466      0.015302     -0.001451
Cr	      3.06433      3.32962      2.46144        -0.004387      0.008952     -0.015127
Fe	      6.14941      4.66599      7.16457         0.001955      0.006160      0.002623
Co	      6.00936      6.53230      4.82287         0.001306     -0.013496     -0.005231
Cu	      7.53886      7.30565      7.24803        -0.006841     -0.000780     -0.006271
Ni	      4.62774      2.23376      7.19911        -0.003415      0.003344     -0.000909
O	      3.10928      1.66188      1.22343         0.017095      0.012132      0.013633
O	      6.01230      1.76841      1.26397         0.008814     -0.001732      0.001971
O	      1.60681      4.08798      1.29610         0.015518     -0.014681      0.009431
O	      4.54254      4.11133      1.26130         0.000081     -0.008907      0.002977
O	      5.90120      6.65654      1.09906         0.002393     -0.001423      0.007939
O	      3.00229      6.53965      1.10890        -0.000391     -0.012028     -0.018607
O	      1.54527      2.42919      3.52096         0.016218     -0.001951     -0.003980
O	      4.61979      2.47537      3.50334         0.000658     -0.010128      0.011116
O	      6.06036      4.89280      3.61890         0.004758      0.000687      0.007142
O	      3.05694      4.85013      3.62398        -0.002444     -0.009782     -0.006075
O	      4.58011      7.47861      3.72416        -0.002519      0.006592     -0.006512
O	      7.37031      7.39237      3.72884        -0.002628      0.007058     -0.002025
O	      6.09662      3.11903      6.08115        -0.005345     -0.004920     -0.003946
O	      3.08981      2.98839      6.00737        -0.004594     -0.005147     -0.004843
O	      4.70681      5.75561      6.14119        -0.004012      0.009517      0.007189
O	      7.36630      5.79385      6.00759        -0.001748      0.002849      0.000488
O	      3.05387      8.03702      6.14673         0.000650     -0.005797      0.002189
O	      5.78287      8.11029      5.95993        -0.007774     -0.003855     -0.000579
