# total energy = -228.88566482 eV
 
CRYSTAL
PRIMVEC
6.059072 0.014192 0.001088 
1.586194 7.639083 -0.019879 
1.486479 2.347321 7.315905 
PRIMCOORD
36 1
Li	      6.22722      8.36892      2.49687         0.002507      0.003503      0.001337
Li	      2.84804      8.30674      2.42422         0.003663      0.000924     -0.003805
Li	      3.01293      4.91257      0.09152        -0.002229      0.001559      0.002387
Li	      7.83942      7.41693      7.24525         0.002736     -0.003828      0.000921
Li	      3.12856      6.77593      4.83120        -0.004101      0.006292     -0.004610
Li	      1.55657      5.87913      2.38297        -0.009496      0.002690     -0.010975
Li	      4.53225      5.93799      2.44436        -0.001644      0.000556      0.011816
Li	      1.46862      2.50222      0.04084         0.002014     -0.000631      0.000053
Li	      0.01275      0.04081      0.02675         0.003069     -0.003002     -0.004551
Sc	      6.06529      3.36122      2.30257         0.016345     -0.002294      0.007082
Ti	      1.71911      4.27716      4.86909        -0.007172     -0.000628     -0.007741
Mn	      3.04650      3.27735      2.31786        -0.004957      0.002588     -0.005858
V	      4.68895      7.53159      0.21088        -0.005546      0.000995      0.002167
Cr	      6.13300      6.71565      4.83825         0.001119      0.002317     -0.000949
Fe	      4.45681      9.12421      4.89114        -0.012583     -0.003943     -0.002230
Co	      6.00780      1.58048      4.88785         0.016329     -0.005978     -0.005063
Cu	      4.56203      4.17560      4.91910         0.001249      0.007242      0.009011
Ni	      6.08481      4.90074      7.29919        -0.004115     -0.005619     -0.004664
O	      6.13400      8.50823      5.98336        -0.001999      0.000129     -0.000257
O	      2.95657      8.42643      5.94430         0.006235      0.010311     -0.006670
O	      7.56577      7.63115      3.76443        -0.004325     -0.000041      0.005095
O	      4.69199      7.57088      3.73618        -0.003295      0.007335      0.008705
O	      3.28215      6.83117      1.00535         0.003788     -0.003975     -0.003706
O	      5.98064      6.81263      1.09235         0.013569     -0.011331      0.007790
O	      7.53690      5.73857      6.02665        -0.000348     -0.001915     -0.004157
O	      4.74300      5.79899      6.00194         0.002221     -0.005157     -0.000361
O	      3.03006      4.95020      3.76498        -0.000347     -0.001475      0.003235
O	      6.32497      5.04694      3.71866        -0.000591     -0.001384     -0.000011
O	      4.56637      4.20288      1.25747        -0.009149      0.000131     -0.004856
O	      1.52945      4.18507      1.23537        -0.000229     -0.004737      0.004805
O	      2.79079      3.20444      6.03889        -0.003802     -0.000405     -0.005214
O	      5.85108      3.12973      6.09512        -0.003146     -0.000587      0.005990
O	      4.54860      2.49119      3.79091        -0.001854      0.000907      0.001611
O	      1.41056      2.46728      3.79684        -0.000157      0.001539      0.004938
O	      6.00813      1.67538      1.23911         0.000619      0.001961     -0.000415
O	      3.04082      1.52481      0.99882         0.005626      0.005951     -0.000851
