# total energy = -228.75931079 eV
 
CRYSTAL
PRIMVEC
5.983344 0.075021 -0.115416 
1.638249 7.666299 -0.038790 
1.318317 2.530610 7.260733 
PRIMCOORD
36 1
Li	      1.66076      2.50111     -0.11744         0.001799     -0.010200     -0.000201
Li	      4.32656      7.63124      7.18181         0.002857      0.005180      0.007319
Li	      1.49840      1.02012      2.34232         0.001208      0.005506      0.002551
Li	      2.80189      3.27117      2.43843        -0.010615      0.000625     -0.009678
Li	      6.10191      3.37760      2.39118         0.002062     -0.001717     -0.000368
Li	      6.00238      1.91596      4.72174        -0.002855     -0.003608     -0.010253
Li	      1.40284      4.04810      4.84898        -0.006895     -0.016434     -0.004178
Li	      2.92509      6.77585      4.83453        -0.006505     -0.005543      0.002625
Li	      4.35817      2.76646      7.14033        -0.002138      0.003359      0.001999
Sc	      5.91356      6.74437      4.78679         0.006128      0.002310      0.002508
Ti	      4.34992      5.93100      2.22488         0.022020      0.013500     -0.001622
Mn	      7.48403      5.99743      2.31063        -0.009724      0.016348      0.003339
V	      7.43009      7.75815      7.08962         0.013069      0.005628      0.020660
Cr	      2.83520      1.74893      4.80369        -0.002030      0.007747     -0.004288
Fe	      4.43128      1.03560      2.32722         0.001294      0.008324     -0.009063
Co	      4.42418      4.19080      4.77953         0.000895      0.010159     -0.005157
Cu	      0.03854      0.08116     -0.02276        -0.005968     -0.004980     -0.000880
Ni	      4.51801      2.61490     -0.03767        -0.016453     -0.001967     -0.009599
O	      3.08059      1.76655      1.18239         0.005708     -0.008648      0.009872
O	      5.90514      1.65767      1.12354         0.001939     -0.004261      0.012273
O	      1.41993      4.45970      1.15919        -0.007611     -0.002050     -0.007246
O	      4.62875      4.46720      1.04722         0.003950     -0.000784     -0.006749
O	      5.97972      6.75846      1.26576        -0.005358      0.000651      0.000467
O	      3.11554      6.82148      1.18269         0.002120     -0.010189      0.010034
O	      1.48360      2.49201      3.67268         0.009495     -0.002141      0.004135
O	      4.34657      2.51625      3.69767         0.009878      0.012178      0.003445
O	      5.77742      5.08784      3.54024        -0.000806     -0.009791     -0.008428
O	      3.05561      5.15260      3.41767         0.010338     -0.002170      0.011968
O	      4.56448      7.68837      3.50322        -0.008379      0.002131     -0.006085
O	      7.38446      7.52953      3.43825         0.004900      0.000717     -0.000485
O	      5.90077      3.54911      5.94275        -0.001656     -0.002580     -0.007521
O	      3.04635      3.41977      5.82920        -0.003353      0.008278      0.002338
O	      4.41264      5.83930      5.86988        -0.006391      0.001858      0.003539
O	      7.43775      6.15443      6.04803         0.006801      0.002811      0.000092
O	      2.94216      8.60809      6.10763        -0.003962     -0.017497     -0.003300
O	      6.02767      8.48002      6.01975        -0.005760     -0.002750     -0.004062
