# total energy = -229.55757191 eV
 
CRYSTAL
PRIMVEC
5.856087 0.025148 -0.049145 
1.409197 7.769499 -0.005201 
1.363415 2.884890 7.259266 
PRIMCOORD
36 1
Li	      4.38528      1.08592      2.44590         0.002265      0.005326      0.005947
Li	      5.81048      3.57244      2.50881         0.002952      0.008911      0.002061
Li	      1.38863      6.05417      2.49616        -0.000516     -0.006184     -0.005879
Li	      2.91560      1.83629      4.69248        -0.008691     -0.000968     -0.002574
Li	      1.35182      4.49345      4.73658         0.002748     -0.003238      0.005071
Li	      4.39571      4.40856      4.76728        -0.001838      0.002007     -0.002857
Li	      2.82520      7.03490      4.75267        -0.002506     -0.009698     -0.006782
Li	      4.31472      2.94295      7.13650        -0.001716     -0.000633     -0.002454
Li	      4.31622      2.69830      0.08986         0.003422     -0.003458     -0.001700
Sc	      4.34360      6.15808      2.45219        -0.004576     -0.011282      0.001688
Ti	      2.74858      5.45197      7.23356        -0.011066      0.009322      0.004832
Mn	      4.22379      8.11903      7.21897        -0.003831      0.012907      0.012182
V	      7.12870      2.90497      7.15061         0.012822      0.013972      0.002316
Cr	      5.80251      7.12621      4.79887         0.004265      0.004458     -0.001903
Fe	      2.86869      3.50531      2.59344         0.005531      0.006895      0.002195
Co	      5.80913      1.94400      4.73755        -0.000206     -0.006552     -0.002979
Cu	      5.81647      5.17168     -0.03332         0.005605     -0.015361      0.005418
Ni	      2.81418      8.71890      2.45860        -0.010380     -0.000354      0.002270
O	      2.76637      1.92431      1.20878         0.002567     -0.000909     -0.005804
O	      5.85018      1.70054      1.01460         0.005318     -0.000885     -0.003920
O	      1.30746      4.23789      1.16249        -0.004639      0.003482      0.004699
O	      4.11701      4.41247      1.22291        -0.005123      0.002788      0.010320
O	      5.90317      6.97509      1.02894        -0.013977     -0.003436      0.011677
O	      2.84950      6.91615      1.06630         0.006227     -0.003089     -0.009295
O	      1.36980      2.65753      3.61114        -0.004300     -0.007654     -0.002164
O	      4.36882      2.74150      3.61682         0.006087     -0.004512      0.009422
O	      5.79094      5.48334      3.67239        -0.000304     -0.003586     -0.008435
O	      2.86843      5.23344      3.54809         0.009404     -0.001859     -0.005509
O	      4.34496      7.86001      3.58600        -0.002616      0.001183     -0.001878
O	      7.22081      8.06307      3.71179         0.006459      0.002424      0.000008
O	      5.82887      3.50538      5.91687        -0.010722      0.008460     -0.010662
O	      2.74598      3.84996      6.22788         0.007899      0.007401     -0.003038
O	      4.24763      6.46799      6.13628        -0.005832     -0.007630      0.005151
O	      7.21488      6.37224      6.08252         0.007789     -0.009953      0.003194
O	      2.96641      9.09617      6.02682        -0.002437      0.010453     -0.006926
O	      5.91299      8.84076      5.90547         0.003915      0.001250     -0.003691
