# total energy = -229.09525584 eV
 
CRYSTAL
PRIMVEC
5.986642 -0.057608 0.082218 
1.304952 7.663103 -0.066900 
1.733206 2.479508 7.275083 
PRIMCOORD
36 1
Li	      6.04959      1.78104      4.94071         0.002863     -0.000858     -0.007755
Li	      4.43132      0.94459      2.35376         0.008199     -0.000677      0.006615
Li	      2.93542      5.07143      0.07715         0.002714     -0.010741     -0.000662
Li	      5.81292      5.06277      0.05342        -0.008387     -0.014382      0.003717
Li	      1.56191      2.47065      0.04842         0.001645      0.014299      0.003507
Li	      1.57983      4.10300      4.78902         0.007159     -0.002108      0.014301
Li	      4.58835      4.08327      4.95907        -0.010049      0.003369     -0.006118
Li	      3.01606      3.38557      2.43147         0.001703      0.005534      0.004270
Li	      4.76189      2.44181      7.21438         0.004437      0.002383     -0.014348
Sc	      1.58737      0.90216      2.36114        -0.003730     -0.015862     -0.001544
Ti	      3.08823      6.55248      4.95187        -0.009355     -0.005969      0.000350
Mn	      3.19209      1.68750      4.87270        -0.003293      0.004994      0.005457
V	      7.54184      2.42595      7.26293        -0.003588      0.009355      0.004306
Cr	      5.95343      3.35058      2.48929         0.005934      0.006082     -0.007413
Fe	      6.07956      6.78896      4.92937         0.000441     -0.017599     -0.017925
Co	      4.45907      5.89081      2.31157         0.004718      0.003547     -0.009759
Cu	      1.46145      5.86288      2.37304        -0.010422     -0.006947      0.004962
Ni	      4.39010      2.53272      0.07113         0.005807     -0.011363     -0.014666
O	      6.03794      8.35152      5.95984         0.006325     -0.005633      0.015463
O	      3.07334      8.51892      5.88918         0.007303     -0.001536     -0.011496
O	      7.56218      7.29776      3.66253        -0.009919     -0.004577     -0.000406
O	      4.42188      7.62633      3.68020         0.007466     -0.009946     -0.009007
O	      2.73117      6.69720      1.22944        -0.008799      0.011411      0.012205
O	      5.87080      6.86981      1.03616         0.001299     -0.010753      0.006669
O	      7.59584      5.92667      6.03235        -0.007512      0.005950     -0.000810
O	      4.57033      5.93849      6.01985        -0.000603     -0.005518     -0.010227
O	      3.21311      5.13715      3.81910        -0.008477      0.004641     -0.004094
O	      6.06744      5.11138      3.55505         0.008021      0.011615     -0.000277
O	      4.52937      4.16205      1.31512         0.000394     -0.008137      0.006078
O	      1.38246      4.32769      1.32645        -0.009808      0.005379      0.017242
O	      3.06309      3.14964      6.16459         0.004381      0.016199     -0.006556
O	      6.26128      3.32858      6.19243         0.009034      0.010616      0.011428
O	      4.53539      2.47971      3.73125        -0.005732      0.005192     -0.004462
O	      1.44240      2.53715      3.54988        -0.002990      0.004232     -0.003299
O	      5.99318      1.63384      1.25772         0.012883     -0.002563      0.011015
O	      2.96340      1.65801      1.20018        -0.000059      0.010369      0.003240
