# total energy = -229.19343718 eV
 
CRYSTAL
PRIMVEC
5.925100 -0.033271 0.040104 
1.320949 7.720047 -0.003347 
1.674207 2.572509 7.294236 
PRIMCOORD
36 1
Li	      6.00627      1.85956      4.93322         0.002058     -0.007980      0.005251
Li	      4.36299      0.92595      2.38212         0.001393      0.003613      0.001692
Li	      2.82817      5.22503      0.01389        -0.009774      0.002094     -0.006448
Li	      5.86114      5.14103      0.07047         0.008082     -0.003970      0.003783
Li	      1.47638      2.44416      0.09688        -0.006768      0.000171     -0.003844
Li	      1.56312      4.18200      4.83983        -0.002887     -0.000221      0.004242
Li	      4.51819      4.14327      4.95615         0.004045     -0.005713      0.002710
Li	      2.96446      3.40218      2.48799         0.001228      0.005120     -0.002752
Li	      4.64410      2.55858      7.24378        -0.007123      0.002229      0.006801
Sc	      4.29150      2.57236      0.10831         0.007374      0.017902     -0.000697
Ti	      3.04702      6.65224      4.92424        -0.003613     -0.007591      0.007419
Mn	      3.09697      1.78313      4.80651        -0.001567      0.003702      0.007372
V	      7.49053      2.55096      7.27637         0.017895      0.010815     -0.014205
Cr	      5.95839      3.39022      2.52558         0.003168      0.009511     -0.018103
Fe	      5.98942      6.94763      4.87620        -0.003323      0.005001      0.004587
Co	      4.41974      5.96286      2.32864         0.002969     -0.013079      0.004941
Cu	      1.45918      5.93610      2.41403         0.015841     -0.000693      0.006827
Ni	      1.53487      0.88914      2.38305         0.003275     -0.000484     -0.013162
O	      5.86374      8.55802      5.88739        -0.009645     -0.002675     -0.009365
O	      3.05600      8.64996      5.95875        -0.003033      0.004281      0.001564
O	      7.49671      7.41525      3.63633        -0.001121     -0.000176     -0.004862
O	      4.40074      7.59522      3.67548        -0.000035      0.001309     -0.009530
O	      2.70725      6.80554      1.27484        -0.008483      0.000250      0.002155
O	      5.82382      6.93125      1.02324         0.004041     -0.001674      0.001729
O	      7.48217      6.12347      6.03520         0.000982      0.007141     -0.008366
O	      4.52990      6.06755      6.05991        -0.003351      0.005203     -0.009943
O	      3.15199      5.17557      3.89650        -0.001841     -0.000981      0.003617
O	      6.04103      5.16428      3.57584         0.006726     -0.007451     -0.003611
O	      4.53119      4.23438      1.33172         0.004507     -0.002501     -0.003214
O	      1.41675      4.37647      1.38777         0.000202      0.006071      0.012012
O	      2.97954      3.31619      6.26118        -0.016859     -0.003484      0.008766
O	      6.15494      3.45607      6.18144        -0.002285     -0.010354     -0.005023
O	      4.48487      2.55869      3.71633         0.001471     -0.001782     -0.006600
O	      1.52329      2.52792      3.62297         0.005232     -0.003116      0.009492
O	      5.88587      1.70672      1.25212         0.003989     -0.003655      0.010029
O	      2.92276      1.72217      1.20938        -0.012773     -0.006836      0.014732
