# total energy = -229.91752216 eV
 
CRYSTAL
PRIMVEC
5.956115 0.015291 -0.033370 
1.417775 7.680937 -0.062818 
1.544772 2.491332 7.245770 
PRIMCOORD
36 1
Li	      2.87293      5.07799      7.20895        -0.004217     -0.000604      0.002456
Li	      7.40103      7.61753      7.12637         0.000106      0.012369     -0.006720
Li	      1.40146      0.76080      2.40975         0.006596     -0.006848     -0.000001
Li	      5.92637      3.35808      2.30210         0.003812      0.003761      0.008604
Li	      1.48350      5.98823      2.32810         0.005795     -0.001231     -0.006435
Li	      4.48782      9.32529      4.73280         0.004326     -0.008459      0.001099
Li	      5.92261      1.62242      4.83166         0.006187      0.002781      0.004103
Li	      5.93809      6.87447      4.83086        -0.002762      0.006979      0.003608
Li	      4.63641      2.62181     -0.02013        -0.001671      0.008607      0.005808
Sc	      5.97558     10.12412      7.11306        -0.004603     -0.016988     -0.008894
Ti	      2.87284      6.96674      4.84016         0.001492     -0.006154     -0.003990
Mn	      4.52208      5.94596      2.37958         0.009312      0.003715     -0.012237
V	      2.86797      3.22327      2.28510         0.020731     -0.010000      0.009311
Cr	      7.41486      4.27616      4.77193        -0.012083     -0.006895      0.007704
Fe	      4.46371      4.29908      4.80827        -0.001740     -0.012129     -0.004077
Co	      4.62492      0.84476      2.49666         0.008498      0.002438      0.005313
Cu	      0.03098     -0.02144      0.03262        -0.002460      0.005386     -0.005696
Ni	      4.53633      7.56278      7.17467         0.004399     -0.001982     -0.008797
O	      2.98337      1.78368      1.27035        -0.004954     -0.003108      0.000407
O	      5.91458      1.58301      1.14520        -0.001881      0.006189     -0.000835
O	      1.68037      4.16091      1.29217        -0.021479      0.019090      0.000168
O	      4.34091      4.25456      1.32096        -0.005315     -0.001600     -0.000162
O	      5.96935      6.82727      1.09869         0.001647     -0.008414      0.002415
O	      3.13356      6.71819      1.23613        -0.003062      0.005753      0.011073
O	      1.61614      2.68706      3.51475        -0.007490      0.000470      0.001156
O	      4.30770      2.67597      3.50277         0.002242      0.000487      0.000428
O	      5.88744      5.06053      3.59501        -0.008344     -0.007197     -0.001201
O	      2.92283      5.04678      3.67083         0.002622     -0.001167     -0.005582
O	      4.39636      7.53240      3.53639         0.000194     -0.008652     -0.005275
O	      7.52184      7.65132      3.63568         0.005070     -0.002222     -0.006036
O	      5.90217      3.45485      5.85567        -0.001953      0.007986      0.001856
O	      2.95399      3.39941      5.97854        -0.004752      0.002724      0.009600
O	      4.33584      5.95902      5.87637        -0.004460      0.003906     -0.001152
O	      7.51494      5.95412      5.86392         0.005322     -0.000755     -0.004101
O	      2.99335      8.43790      5.97768         0.000325      0.003451      0.010950
O	      5.93066      8.52381      5.99411         0.004550      0.008315     -0.004867
