# total energy = -83.08106855 eV
 
CRYSTAL
PRIMVEC
-0.054641 2.067487 2.065843 
8.526449 -0.113331 -0.113729 
0.000291 4.238516 -4.239561 
PRIMCOORD
12 1
Mn	      0.00089      4.21185     -4.20713         0.007013     -1.114785      1.118289
Mn	      4.26464      2.09723     -2.20484        -0.008740      1.105029     -1.104598
Mn	      2.10542      2.06904     -0.05281        -0.009358      0.001749     -0.003276
Mn	      6.36819      2.01198     -0.10966         0.010523      0.000330     -0.000835
O	      4.23770      2.18917     -0.22954         0.000381     -0.125600      0.125256
O	      8.49903      1.83546      0.00938        -0.000093      0.123695     -0.124792
O	      6.19522      2.02654     -2.03959        -0.120772     -1.363573      0.559695
O	      6.54180      1.99753      1.82022         0.124151      1.365576     -0.563143
O	      2.27868      3.99935     -0.06709         0.129460     -0.561627      1.356980
O	      1.93180      0.13895     -0.03918        -0.130748      0.558056     -1.357891
O	      4.23661      3.98473     -2.02641        -0.000204     -0.426921      0.429707
O	     -0.02557      4.39152     -2.31964        -0.001613      0.438069     -0.435392
