# total energy = -229.60470712 eV
 
CRYSTAL
PRIMVEC
5.953368 0.026631 -0.033716 
1.431968 7.644818 -0.087101 
1.548618 2.458701 7.211899 
PRIMCOORD
36 1
Li	      2.89147      5.09661      7.12579        -0.006033     -0.007460      0.006681
Li	      5.91181      5.05892     -0.08263         0.001084     -0.005530     -0.003221
Li	      1.44489      0.79350      2.42111         0.002158      0.006544      0.007640
Li	      5.97674      3.35580      2.27556         0.005407      0.002295      0.006785
Li	      1.46192      5.89242      2.28936         0.002471      0.008800      0.000646
Li	      4.50195      9.23146      4.68192        -0.000137     -0.000235     -0.007575
Li	      5.89331      1.70221      4.69754         0.006730      0.002099      0.009510
Li	      5.91683      6.85314      4.74275        -0.002140      0.000134      0.001369
Li	      4.60541      2.57177      0.01686         0.002468      0.001355     -0.005487
Sc	      4.55404      2.47487      7.15535        -0.004424     -0.001919     -0.010229
Ti	      2.77081      6.86183      4.78338        -0.008433      0.001774      0.021431
Mn	      4.52749      5.91802      2.35500         0.004021      0.002976     -0.002818
V	      2.88679      3.24194      2.37917        -0.023944     -0.007241      0.009689
Cr	      2.96658      5.04002     -0.06699        -0.010256     -0.003186     -0.008569
Fe	      4.48830      4.25928      4.76813         0.008091     -0.001804      0.008858
Co	      4.55665      0.83950      2.41928         0.014553     -0.014775     -0.017726
Cu	      0.03777      0.03582      0.01679        -0.011227     -0.007308      0.000381
Ni	      7.39456      4.23246      4.75309        -0.012932     -0.002744      0.011693
O	      3.14952      1.66701      1.33296         0.002422     -0.001054     -0.000853
O	      5.88597      1.57264      1.23947        -0.011225     -0.008614     -0.002068
O	      1.62779      4.15077      1.15613         0.014300     -0.002920      0.006882
O	      4.32462      4.24967      1.23304        -0.000328     -0.001967      0.004588
O	      6.03644      6.94581      1.12726         0.001743      0.006382      0.003017
O	      3.13352      6.63702      1.18454        -0.005458      0.003441      0.002827
O	      1.62114      2.61279      3.48725         0.017059      0.017606     -0.014556
O	      4.40834      2.51579      3.48525         0.001423     -0.000152      0.000093
O	      5.83322      5.04301      3.52011         0.001489     -0.004450      0.004629
O	      2.96265      5.02489      3.63168        -0.002385      0.006750     -0.009918
O	      4.49474      7.55226      3.43160         0.001774      0.010393      0.006103
O	      7.47687      7.65008      3.54806         0.000741      0.003933     -0.003254
O	      5.87510      3.42241      5.84838        -0.009732      0.000473     -0.002262
O	      2.99585      3.36809      6.02856         0.008091     -0.003428     -0.005923
O	      4.33832      5.96286      5.82751        -0.001357     -0.008204     -0.004395
O	      7.50933      5.98860      5.82818         0.013555     -0.000089     -0.008792
O	      3.04721      8.34385      5.94801         0.006749     -0.002774     -0.004961
O	      5.91401      8.41395      6.02921        -0.006320      0.010895     -0.000215
