# total energy = -103.22552919 eV
 
CRYSTAL
PRIMVEC
4.108468 0.000057 -0.000052 
0.000099 4.338148 -4.113451 
0.000113 6.443135 1.989810 
PRIMCOORD
16 1
Li	      0.00247      6.56546      1.86056         0.000549     -0.017188     -0.020240
Li	      2.05624      2.16451     -0.05348         0.000064     -0.015847     -0.013515
Li	      0.00243      4.25314     -0.02810        -0.000931      0.022273     -0.000466
Li	      2.05639      6.50720     -0.02290         0.000758     -0.000950      0.033942
Ti	      4.10818      6.33390     -2.09807         0.001958     -0.150495      0.038083
Ti	      2.05598      8.77903     -2.20259        -0.000101      0.388272     -0.317136
Ni	      0.00230      2.12182     -1.94825         0.000006      0.056948      0.050495
Ni	      2.05630      4.27969     -2.00417         0.001412      0.050469      0.054753
O	      0.00239      2.11591      0.09056         0.000311      0.001672      0.253838
O	      2.05643      4.30614      0.06533         0.001129     -0.001244      0.383717
O	      0.00241      4.41123     -2.03814        -0.002995      0.222573     -0.019572
O	      2.05731      6.49433     -2.09947         0.001322      0.085554     -0.005618
O	      0.00263      6.54260     -0.19564        -0.002136     -0.118039     -0.189442
O	      2.05663      8.68181     -0.14365         0.000290     -0.124012     -0.039034
O	      0.00264      8.51084     -2.08618        -0.002083     -0.020751     -0.090548
O	      2.05654     10.60825     -2.09334         0.000447     -0.379234     -0.119258
