# total energy = -229.51365386 eV
 
CRYSTAL
PRIMVEC
5.929576 0.039547 -0.051359 
1.392485 7.688479 0.025025 
1.620665 2.536570 7.224016 
PRIMCOORD
36 1
Li	      4.31002      2.44196      0.11932         0.004396      0.003024     -0.004509
Li	      1.50420      2.50242      0.05953         0.001955     -0.001165      0.000696
Li	      4.42646      0.95588      2.27756        -0.001251     -0.002660     -0.004707
Li	      3.03773      3.27326      2.41967        -0.004834      0.003190      0.000275
Li	      7.35020      6.08908      2.29155         0.010467     -0.004533     -0.007408
Li	      4.41994      6.03300      2.36076         0.000491     -0.002886      0.003060
Li	      3.15535      1.74863      4.80894         0.001782     -0.007302     -0.004491
Li	      5.99250      1.77884      4.70060        -0.007676     -0.001382     -0.001047
Li	      3.00047      0.05048      0.04161         0.008830      0.001109      0.005412
Sc	      5.97480      6.92592      4.69962         0.001967      0.009485      0.013148
Ti	      2.90428      5.05470      0.12026         0.014992     -0.003900      0.012323
Mn	      5.91400      0.06479     -0.03550         0.011700      0.001378      0.010869
V	      1.62913      4.23712      4.75216         0.013229      0.008084      0.001101
Cr	      5.88773      3.42686      2.35010        -0.009973     -0.003013     -0.015493
Fe	      1.61463      0.89704      2.38646        -0.003729     -0.005337     -0.011250
Co	      5.86031      5.19410     -0.02973        -0.010071     -0.006788      0.007446
Cu	      2.99696      6.87013      4.81044        -0.003886      0.006980      0.003498
Ni	      4.51354      4.17786      4.87026        -0.004051      0.003116     -0.004976
O	      2.90045      1.65606      1.23735        -0.003448     -0.000757      0.009525
O	      5.97758      1.70092      1.20108         0.001776      0.000394      0.001724
O	      1.46171      4.30192      1.16499        -0.006995      0.006966     -0.002359
O	      4.35344      4.33552      1.18868         0.001027      0.009049     -0.000742
O	      5.97525      6.93473      1.05370         0.014174      0.001197     -0.003800
O	      2.80828      6.83884      1.11646        -0.004603      0.003972     -0.001199
O	      1.43167      2.63202      3.55202         0.004280     -0.004043      0.009107
O	      4.58237      2.63991      3.57521        -0.011928     -0.005912      0.007285
O	      5.99334      5.03346      3.62415        -0.003314     -0.001288      0.004893
O	      2.92582      4.93012      3.72025        -0.001150     -0.008615      0.004529
O	      4.36945      7.64690      3.58726         0.003718      0.004658      0.007227
O	      7.51239      7.71047      3.59673         0.000289      0.002576     -0.002817
O	      6.22312      3.46979      5.97906         0.001318      0.002147     -0.011288
O	      2.93797      3.40015      6.00269        -0.009054      0.000776     -0.009324
O	      4.47853      6.08072      6.03329        -0.002494     -0.008931      0.003087
O	      7.49333      5.99270      5.85822        -0.013518     -0.001694     -0.009487
O	      3.11025      8.64776      6.20857         0.001503      0.005638     -0.000697
O	      5.86719      8.43333      6.08213         0.004079     -0.003533     -0.009610
