# total energy = -227.96712043 eV
 
CRYSTAL
PRIMVEC
6.116690 -0.042071 0.072092 
1.387747 7.669476 -0.100123 
1.710840 2.295056 7.306504 
PRIMCOORD
36 1
Li	      3.17478      0.05779      0.25605        -0.004872     -0.001540      0.000940
Li	      4.56446      0.83763      2.30424         0.000995      0.002514     -0.010992
Li	      1.53241      0.82616      2.20994         0.001280     -0.016598     -0.007320
Li	      6.15774      5.18981      0.03354        -0.010399      0.014132     -0.001583
Li	      1.43798      6.06354      2.19354        -0.002899      0.011453      0.006806
Li	      4.44907      2.40914      0.14304        -0.005640     -0.001685     -0.000133
Li	      1.62101      2.36727      0.19730         0.013832     -0.001332      0.003973
Li	      1.60121      4.02804      4.89603         0.005318      0.003804      0.011916
Li	      7.36158      7.66668      0.09925        -0.011529      0.019892     -0.004238
Sc	      4.65290      4.08316      4.95426        -0.000828      0.013686      0.010592
Ti	      3.05934      1.56718      4.93898        -0.004866     -0.018910     -0.005712
Mn	      6.16939      1.50680      4.88522         0.017715      0.015072      0.011502
V	      6.30112      6.54825      4.85271         0.001076     -0.013170     -0.001321
Cr	      3.00728      5.07982      0.00447        -0.003522      0.019450      0.016774
Fe	      4.56396      6.02181      2.28474         0.011940     -0.006253      0.008043
Co	      6.13915      3.47249      2.09543        -0.001847      0.008325      0.012208
Cu	      3.06868      6.57139      4.77760         0.004157     -0.003239     -0.001579
Ni	      3.02130      3.28247      2.37472        -0.006874      0.004965     -0.005492
O	      6.07256      8.22008      5.92420        -0.003618      0.005088     -0.002737
O	      3.28028      8.17854      6.04863         0.004662      0.007864     -0.004371
O	      7.43808      7.59326      3.69423        -0.004740      0.003741      0.002152
O	      4.65750      7.34784      3.83087         0.007419     -0.006220      0.022221
O	      3.05158      6.66634      1.18808        -0.008808      0.000176     -0.024778
O	      5.98652      6.73978      1.23349        -0.018307      0.011571     -0.003463
O	      7.62166      5.83008      5.84097        -0.014166     -0.006580     -0.009717
O	      4.91221      5.74879      6.11256         0.002382      0.012217      0.005585
O	      3.23469      4.94685      3.65846        -0.005379     -0.006125      0.002451
O	      6.08665      4.90061      3.56607        -0.006752      0.005280      0.013694
O	      4.50598      4.27014      1.21812         0.004843     -0.007652     -0.010967
O	      1.58406      4.22787      1.15975        -0.007202     -0.009136      0.005205
O	      3.13509      3.07293      6.02114         0.010696     -0.018882     -0.008414
O	      6.18027      3.04959      5.97943         0.013277     -0.016257     -0.011036
O	      4.47260      2.30982      3.80634         0.015127     -0.006350     -0.001373
O	      1.66554      2.18778      3.82075         0.007735      0.002418      0.006206
O	      6.09660      1.86740      1.36717         0.005602     -0.017683     -0.006906
O	      3.04341      1.66408      1.28587        -0.005810     -0.004035     -0.018136
