# total energy = -20.19238530 eV
 
CRYSTAL
PRIMVEC
-0.025261 2.216015 1.962616 
1.961680 -2.216920 -0.029529 
3.904733 2.163646 -1.971697 
PRIMCOORD
3 1
Mn	      1.87710     -2.11149     -0.02958        -1.364758     -0.735323      0.800491
O	      3.79741      2.06021     -0.09983         1.372242      2.285927     -0.646219
O	      1.78829      0.01752      0.06020        -0.007484     -1.550604     -0.154273
