# total energy = -20.33376861 eV
 
CRYSTAL
PRIMVEC
-0.026187 2.297231 2.034545 
2.033574 -2.298169 -0.030612 
4.047838 2.242942 -2.043958 
PRIMCOORD
3 1
Mn	      2.01722     -2.26910     -0.03179        -0.263493     -0.147959      0.134408
O	      4.08086      2.21399     -0.10729         1.008189      1.858958     -0.850348
O	      1.92177      0.01882      0.06470        -0.744695     -1.711000      0.715940
