# total energy = -229.64143725 eV
 
CRYSTAL
PRIMVEC
5.921175 0.040111 -0.065473 
1.391287 7.702697 0.014357 
1.601864 2.533879 7.240135 
PRIMCOORD
36 1
Li	      4.34423      2.48056      0.12538        -0.010685      0.010152     -0.008452
Li	      1.50334      2.48700      0.09858         0.001230      0.003706     -0.000779
Li	      4.43784      0.97506      2.29795         0.006217     -0.004351     -0.007075
Li	      3.04006      3.30354      2.42767         0.000598     -0.010247     -0.000266
Li	      7.31366      6.06536      2.28342        -0.002936     -0.004693      0.007518
Li	      4.50784      6.02075      2.33036        -0.007007     -0.006762      0.018590
Li	      3.11858      1.78379      4.77316         0.000322     -0.004388     -0.001611
Li	      5.96737      1.77280      4.73719        -0.000861     -0.008708     -0.006543
Li	      3.01182      0.12209      0.05638        -0.006672      0.010528      0.007040
Sc	      2.86903      5.06810      0.11684        -0.025264      0.013993     -0.003033
Ti	      5.96006      6.98606      4.70225        -0.003645      0.007822     -0.004617
Mn	      5.89231      0.06820     -0.05898         0.018162     -0.008299      0.001188
V	      1.59016      4.22730      4.75298        -0.003153     -0.026291      0.002046
Cr	      5.87097      3.42896      2.35116         0.015844     -0.024223      0.005514
Fe	      1.61835      0.90099      2.35770        -0.011466      0.009965      0.003218
Co	      5.85755      5.18524     -0.02198         0.005602      0.010091      0.010808
Cu	      2.98783      6.85552      4.81339         0.017275      0.003594      0.013503
Ni	      4.49378      4.19882      4.85898        -0.020236      0.006196      0.005376
O	      2.91349      1.67736      1.25646         0.000943     -0.007873     -0.017008
O	      5.97312      1.69447      1.21911         0.011051     -0.014732     -0.007715
O	      1.37974      4.24113      1.20794        -0.003702      0.020421     -0.011296
O	      4.43825      4.30297      1.21172         0.005547      0.006869      0.002445
O	      5.94328      6.95191      1.01874        -0.002463     -0.001465     -0.008118
O	      2.79817      6.93585      1.14500        -0.001738     -0.013646     -0.015717
O	      1.43374      2.59103      3.58981        -0.004101      0.015159      0.001459
O	      4.55599      2.63844      3.59573         0.005390      0.000257      0.006981
O	      5.97528      5.07649      3.63388         0.002282      0.020281     -0.000185
O	      2.87732      4.94836      3.72710         0.024116      0.009700     -0.010360
O	      4.41832      7.60838      3.61582         0.023792     -0.009548     -0.004613
O	      7.39189      7.65208      3.62259        -0.015147     -0.002320     -0.007472
O	      6.18979      3.49547      5.98985        -0.003011     -0.002671      0.001953
O	      2.90951      3.41845      6.02569        -0.000575     -0.002065     -0.002159
O	      4.52274      6.03329      5.89656         0.005299     -0.003125      0.002925
O	      7.39052      6.03272      5.78602        -0.011943     -0.009566      0.003154
O	      3.02621      8.67364      6.15575         0.002446      0.008305      0.010910
O	      5.91684      8.38854      5.90592        -0.011514      0.007931      0.012392
