# total energy = -81.11115738 eV
 
CRYSTAL
PRIMVEC
2.084174 4.160082 2.080144 
2.058835 -4.135064 2.054763 
4.130876 -0.000094 -4.122785 
PRIMCOORD
12 1
Mn	      4.02130      0.00009     -4.01036        -0.948620     -0.003639     -0.836654
Mn	      4.07242     -2.01165      1.98959         0.277551     -0.140408     -0.091296
Mn	      2.02766      0.00108     -2.01826         0.261538      0.009833     -1.287865
Mn	      6.06871      0.01088     -2.00164        -0.294985      0.166670      1.053468
O	      4.07072     -2.14988      0.10464         0.105508     -0.928085      0.846969
O	      1.87323     -0.05373     -0.11188        -0.619317      1.814456      1.079867
O	      3.94086      2.17957     -0.01566        -0.968127      1.138925     -0.033444
O	      2.15520     -1.88456      2.02957         0.629388     -0.807716      0.045123
O	      3.93167      0.07704      2.18051         0.763163     -1.865696      0.931750
O	      4.15697     -0.06840     -2.12719        -0.721130      0.009095     -0.887029
O	      2.01430      1.90623      1.88618         0.020921      0.780129     -0.811219
O	      6.20116      0.09449      0.13687         1.494112     -0.173564     -0.009672
