# total energy = -41.02516067 eV
 
CRYSTAL
PRIMVEC
3.996489 -0.000045 -0.000296 
0.000296 -0.000151 -3.994355 
1.998342 4.082955 -1.997161 
PRIMCOORD
6 1
Mn	      1.90808      3.89759     -1.90776        -0.114628      2.625666      0.582964
Mn	      1.90850      1.94689     -3.81508         0.048409     -0.551157     -0.263066
O	      1.90950      2.10098     -1.90780        -0.180418     -0.419285      0.635932
O	      1.90938      0.15126     -3.81508        -0.373187     -1.383407     -0.071125
O	      3.81767      1.79509     -3.81558         0.698010     -1.158173     -0.329500
O	      1.90992      3.74486     -3.81500        -0.078187      0.886356     -0.555206
