# total energy = -102.30708145 eV
 
CRYSTAL
PRIMVEC
-0.000150 -0.004925 -4.057889 
-1.953254 9.742173 -2.021097 
3.904394 -0.000368 -0.000025 
PRIMCOORD
16 1
Li	      0.00288      0.42643     -4.04449         0.000446     -0.002352      0.003802
Li	      1.95321      2.69354     -4.05284        -0.002478     -0.000499     -0.001409
Li	      0.00131      4.42550     -4.10148         0.001164     -0.015239     -0.004260
Li	      1.95414      6.94979     -4.07201        -0.000163     -0.009508     -0.009873
Ti	      1.95405      4.82096     -2.12052        -0.003040     -0.357392     -0.105008
Ti	      0.00169      7.39906     -2.09743         0.002780      0.418875     -0.063937
Ni	      0.00230      9.53200     -4.04028        -0.002859      0.094511      0.000350
Ni	      0.00104      2.23907     -2.01752         0.001399      0.074664     -0.012836
O	      1.95320      2.98240     -2.01029         0.000978      0.431696     -0.030268
O	      0.00276      9.22750     -1.99901        -0.006575     -0.435192     -0.034530
O	      0.00159      5.15297     -1.99115        -0.000183     -0.023422     -0.031872
O	      1.95406      6.99387     -2.01423         0.001530     -0.000527     -0.001368
O	      0.00050      2.44613     -4.04876         0.005619      0.030052      0.025951
O	      1.95344      4.92145     -4.01461         0.003325      0.006290      0.151560
O	      0.00332      0.24532     -2.01398        -0.001516     -0.101849     -0.000883
O	      0.00200      7.39994     -4.01891        -0.000426     -0.110108      0.114581
