# total energy = -79.07879018 eV
 
CRYSTAL
PRIMVEC
4.323816 -0.000118 -0.000188 
2.162041 4.302752 -6.650598 
-2.162129 4.384116 2.275380 
PRIMCOORD
12 1
Mn	      0.17200      0.25127     -0.14972        -0.567884     -1.473840      0.408923
Mn	      2.24781      2.36138      0.00050         0.254946      1.040415     -0.659835
Mn	      4.49596      2.26576     -2.34853        -0.264429      0.955582     -0.986521
Mn	      4.49627      4.47374     -4.54291         0.105393     -0.327967      1.252183
O	      0.17292      4.42420     -2.45720        -0.022303     -1.607077     -1.452745
O	     -0.00027      2.33393     -0.19404         0.875837     -1.448873     -1.176910
O	      2.24751      6.87464     -2.06748         0.121673      1.040947      1.177952
O	      2.24698      4.66763      0.17005         0.165237     -0.063309      1.017966
O	      2.24782      4.47964     -4.70670         0.271298      0.070440     -1.641546
O	      4.49654      6.63155     -4.69347        -0.231922     -0.211924     -1.353500
O	      2.24806      2.25940     -2.18463        -0.279691      0.344687      1.717024
O	      2.33397      0.10394     -0.04695        -0.428156      1.680922      1.697011
