# total energy = -80.13489423 eV
 
CRYSTAL
PRIMVEC
-0.000501 2.053137 2.051862 
9.443632 0.000099 -0.000051 
0.000119 4.172345 -4.174088 
PRIMCOORD
12 1
Mn	      0.00128      0.00632      0.00006        -0.061303     -1.491837      1.809802
Mn	      2.39743      2.10491     -0.01482         0.236302     -0.125725     -0.156777
Mn	      4.79371      2.18261     -2.17556        -0.047538      0.923149     -0.678926
Mn	      7.18966      2.10508     -0.01463        -0.230452      0.088667     -0.371087
O	      4.79373      2.23310     -0.14184         0.181932      1.099468     -1.243032
O	      7.21188      2.03687     -2.02996        -1.608236     -1.104291      1.243240
O	      4.79368      4.17379     -2.08503         0.003401     -1.511705      1.398522
O	      7.16969      0.08949     -0.08224         1.678840      1.192633     -1.039800
O	      0.00074      1.97826      0.11177        -0.079942     -0.603374      0.382907
O	      2.37655      2.03624     -2.03055         1.540370     -1.071202      1.220018
O	      0.00034      4.27073     -2.18301         0.082444      1.324740     -1.430177
O	      2.41668      0.08973     -0.08197        -1.695818      1.279476     -1.134691
