# total energy = -80.74444553 eV
 
CRYSTAL
PRIMVEC
1.985935 4.158008 2.049548 
3.959323 -2.076384 -2.042654 
-0.002034 4.152607 -4.086742 
PRIMCOORD
12 1
Mn	      5.66442      5.96406     -3.89343         1.225826     -0.288302      1.057579
Mn	      1.90303      1.99471      0.00364        -0.353678     -2.200871      2.365594
Mn	      1.93939      0.01808     -1.98265         0.293591     -0.216287     -1.150812
Mn	      1.90187      3.98869     -1.95796        -1.035628      0.725573     -0.697456
O	      1.89387      2.14119     -1.79594        -0.432881     -1.950378     -0.654638
O	      3.70830      3.99672     -1.80866         0.507284      0.464935      0.674893
O	      1.82698      4.14455     -4.03881        -1.236823      0.589889      0.141286
O	      3.90434      1.96351      0.04918        -1.248030      1.514447     -0.118730
O	      3.70152      0.03231     -2.00167         1.499755     -1.449904      0.119274
O	      1.97585      3.83153      0.12319         0.149313      1.133822      0.029768
O	      3.89630      1.98666     -4.06659         0.846249     -0.279648     -1.194768
O	      1.90965      5.83541     -2.12055        -0.214978      1.956723     -0.571989
