# total energy = -79.83919887 eV
 
CRYSTAL
PRIMVEC
1.949921 4.492908 1.951604 
1.950291 -4.493244 1.951766 
3.904739 -0.000204 -3.906494 
PRIMCOORD
12 1
Mn	      5.60142      4.31162     -1.85756         0.437368      0.923163     -0.437559
Mn	      1.87241      2.15506      0.00016        -2.993052     -0.245310     -2.705121
Mn	      3.76376      4.31145     -0.01928         0.698994      1.005711     -0.688039
Mn	      3.74436      2.15487      1.87361         2.705144     -0.242227      2.978444
O	      3.67498     -2.15581      0.07018         0.196853     -1.765471     -0.184348
O	      1.80276     -0.00156     -0.06910        -1.328182     -0.226886     -0.088475
O	      3.67449      2.15329      0.07043         1.461172      1.745638     -1.441023
O	      1.94232     -2.15672      1.80329        -0.241259     -1.628246      0.235721
O	      3.81425     -0.00196      1.94264         0.068378     -0.225600      1.333340
O	      3.67394     -0.00092     -1.94765        -0.819757     -0.473002     -1.369007
O	      1.94179      2.15257      1.80348        -1.545293      1.602778      1.535662
O	      5.69152     -0.00201      0.07116         1.359635     -0.470549      0.830405
