# total energy = -80.91720447 eV
 
CRYSTAL
PRIMVEC
-2.044172 4.013586 -2.046407 
2.033167 4.000013 2.033617 
2.047356 0.008175 -6.128475 
PRIMCOORD
12 1
Mn	      1.96290      0.02789     -5.85822         0.459923     -3.538288     -0.052048
Mn	     -0.05986      5.79269     -1.98831        -0.687517      2.011573      0.815935
Mn	     -0.01956      3.87245     -3.98003        -0.925709     -2.895122     -0.978519
Mn	      1.97974      5.79337     -3.93486         0.418703      2.122356     -1.401775
O	     -0.04305      5.64811     -4.00341         1.506168      1.887361      1.318622
O	     -0.10633      3.94984     -2.10356        -1.241179     -0.370183      0.592652
O	      1.81687      5.87024     -2.07508         0.142415      0.962108      0.709813
O	      0.09379      1.82421      0.06719        -1.296292     -0.541858      0.453921
O	      1.87810      3.71768     -0.04523         2.291319     -0.523758      1.998100
O	      0.06343      3.75691     -5.79163        -0.152144     -0.936546     -2.047275
O	      2.00022      5.90655     -5.75963        -0.035903      1.930224     -1.473584
O	      2.08895      3.97961     -3.88957        -0.479785     -0.107868      0.064158
