# total energy = -81.68499756 eV
 
CRYSTAL
PRIMVEC
2.029610 4.010922 2.071898 
4.063532 -1.988396 -2.109730 
0.037333 4.006140 -4.174015 
PRIMCOORD
12 1
Mn	      3.91655      1.98792     -6.02246        -0.259445     -0.379437     -0.525885
Mn	      1.99723      1.92397      0.01972        -0.379095     -1.455375      2.720371
Mn	      3.89587      1.93382     -2.04286         1.331531      0.065757      0.008052
Mn	      2.01021      3.87965     -2.03884        -0.797808      2.279705     -0.594261
O	      2.04384      2.03276     -1.85180        -0.278804     -0.819405     -0.323963
O	      3.82167      3.75983     -2.04835         0.363969     -0.050806     -0.182477
O	      1.85319      3.99722     -4.07745        -0.957357      0.433451      1.512961
O	      4.03345      1.93329      0.01777        -1.161779     -0.000276     -1.663058
O	      3.88552      0.13925     -2.07492         1.946361     -1.847067     -0.319822
O	      1.86668      3.79073      0.10950        -0.793725      0.472452     -0.328968
O	      4.06084      1.93952     -4.15314         1.061479     -0.202855      0.946829
O	      2.05419      5.70163     -2.17323        -0.075327      1.503856     -1.249778
