# total energy = -58.98329366 eV
 
CRYSTAL
PRIMVEC
2.220178 4.345128 2.199623 
4.454127 -2.187057 -2.184783 
2.212525 2.164657 -4.376168 
PRIMCOORD
9 1
Mn	      0.13747     -0.05417     -0.05952        -0.358544      2.333661      0.284540
Mn	      2.32285      2.28010      0.00359        -0.058154     -0.520585     -1.373585
Mn	      4.61998      2.20991     -2.24675        -0.418813     -0.016773      0.136860
O	      4.59185     -0.14375     -2.28146         1.632590     -0.189794      0.250127
O	      6.74358      2.14335     -2.34542        -1.649725     -1.547891      1.703236
O	      4.46443      2.35780     -4.37410        -1.227735      1.299375      1.820009
O	      4.72827      2.27421     -0.12745         0.447025     -0.170638     -1.764782
O	      2.48461      2.20036     -2.12012         1.713815      0.100835      0.153673
O	      4.65741      4.65673     -2.42126        -0.080458     -1.288189     -1.210078
