# total energy = -81.00691826 eV
 
CRYSTAL
PRIMVEC
2.201351 4.197273 2.079189 
2.163287 -4.206013 2.138199 
4.409615 0.048598 -4.262227 
PRIMCOORD
12 1
Mn	      0.05942     -0.03085     -0.02592        -0.451928      0.208331     -0.009683
Mn	      2.24554      2.08992     -0.00705        -0.042564      0.297434     -0.134079
Mn	      2.25295      0.05487     -2.13129         0.248271     -0.174301      0.109144
Mn	      4.45342     -2.04588     -2.12945        -0.061802     -0.313783     -0.027073
O	      4.40982     -2.18970      0.13172         0.000152     -1.098250     -0.270783
O	      2.29653      0.14040     -0.12473        -1.904449      0.604616     -1.061274
O	      4.62108      2.29570     -0.04735         0.008676      1.199831      0.004565
O	      6.46636     -2.23172     -2.15382         0.039256     -1.146487      0.062769
O	      4.33586     -0.12532      2.22821         1.993393     -0.882158      0.895386
O	      4.53694     -0.09671     -2.32410        -1.746879     -0.643905     -0.715609
O	      2.22346      2.20477      1.97175         0.122455      1.059405      0.266978
O	      6.54988      0.16084      0.12341         1.795419      0.889267      0.879660
