# total energy = -19.81668537 eV
 
CRYSTAL
PRIMVEC
0.000136 2.133590 2.135966 
3.919022 -0.000031 0.000307 
-0.000166 2.133604 -2.135980 
PRIMCOORD
3 1
Mn	      0.00244      2.13282      2.13188         0.002534     -0.000368     -0.000973
O	      0.00230      2.13282     -0.00381        -0.000939      0.003195      0.004123
O	      1.96198      2.13439      2.13458        -0.001595     -0.002827     -0.003151
