# total energy = -102.17566193 eV
 
CRYSTAL
PRIMVEC
-0.000006 2.088558 2.088695 
8.398602 -2.138668 2.138784 
-0.003588 4.269317 -4.269565 
PRIMCOORD
16 1
Li	      0.16484      0.17953     -0.17838         0.039777     -0.004170      0.004621
Li	      1.86526      2.27056     -0.18051        -0.015868      0.010498     -0.010061
Li	      4.03360      2.11372     -2.11112        -0.003850     -0.012353      0.011564
Li	      0.14164      1.94129     -1.94013         0.031582      0.009081     -0.011404
Ti	      4.03604      0.00588     -0.00383        -0.471198      0.003937     -0.005116
Ti	      6.51963      2.13825     -0.04767         0.717737      0.036742     -0.037396
Ni	      6.42616     -0.04401      2.13424        -0.108789     -0.008313      0.006975
Ni	      1.93792      4.13769     -2.04760        -0.024233      0.061182     -0.061452
O	      4.26409      1.97926      0.11106         0.013546     -0.089879      0.090529
O	      4.36715      0.10191      1.98835        -0.048377      0.086192     -0.084771
O	      6.26012      0.10801     -0.10632        -0.026200      0.099117     -0.098907
O	      6.20619      2.02911     -2.02740        -0.018474     -0.131948      0.131714
O	      8.32220     -0.04334      2.13333         0.193572      0.001390     -0.000480
O	      2.11783      2.17203     -2.17060         0.011691     -0.144729      0.144667
O	      8.28871      2.12701     -0.03642        -0.773365      0.007628     -0.006356
O	      2.22308     -0.08603      0.08769         0.482449      0.075625     -0.074127
