# total energy = -80.66188164 eV
 
CRYSTAL
PRIMVEC
0.000079 4.593039 0.000032 
3.985390 -0.000030 3.985295 
3.985363 -0.000020 -3.985293 
PRIMCOORD
12 1
Mn	      3.88636      0.00176      3.88501        -0.776871      0.043835      0.622763
Mn	      1.97414      2.25240     -0.02097         0.689072     -0.032468     -0.785256
Mn	      1.97376      0.00170      1.97235        -0.159556      0.022333      1.495731
Mn	      3.88664      2.25242     -1.93363        -0.187974     -0.072557      0.097539
O	      1.87822      0.00182      0.07463        -0.558720     -0.065399     -0.227278
O	      3.83208      2.25174     -0.07627        -0.200955      0.085843     -0.488457
O	      3.83165      0.00227      2.02807        -0.443058     -0.080699      0.668764
O	      2.02872      2.25255     -1.87813         0.518938      0.081507      0.219018
O	      3.98140      0.00182     -2.02976         0.644833     -0.035435     -1.168885
O	      1.87889      2.25255      1.87613        -0.423302      0.061623      0.454232
O	      5.93429      0.00256     -0.07541         1.438689     -0.068053     -1.200919
O	      0.07632      2.25258      0.07486        -0.541096      0.059470      0.312748
