# total energy = -77.58171689 eV
 
CRYSTAL
PRIMVEC
2.237296 4.409755 2.211190 
2.244727 -4.406260 2.196826 
4.482306 -0.010792 -4.407987 
PRIMCOORD
12 1
Mn	      0.41668      0.00918     -0.02992        -3.798285     -0.144896     -0.278347
Mn	      2.47879      2.30833     -0.06030         0.221415     -0.461372      0.437356
Mn	      2.32220      0.01561      2.27825         0.498422     -0.113837     -0.353548
Mn	      4.62308     -2.29173     -2.22240         0.974425      0.652681      0.253431
O	      4.71416     -2.24290      0.13926        -0.034721      0.172522     -0.324933
O	      2.14958      0.12543      0.05194         1.944761      1.299557      1.583902
O	      4.85708      2.22485      0.01168        -0.282863     -0.225888      0.076673
O	      2.37408     -2.15025      2.10414        -0.284945      0.227040      0.234232
O	      4.74420     -0.14752      2.44678        -1.144182     -0.896885      0.056522
O	      4.61857     -0.12756     -2.50799         1.694635     -1.360702     -0.129788
O	      2.37213      2.17537      2.14886         0.231998     -0.200168     -0.360777
O	      7.20562      0.14074     -0.11990        -0.020659      1.051949     -1.194724
