# total energy = -58.32210887 eV
 
CRYSTAL
PRIMVEC
-0.000030 2.076341 2.071330 
4.462475 0.000044 -0.000097 
0.000288 6.499401 -6.479095 
PRIMCOORD
9 1
Mn	      0.00476      8.49401     -4.32672        -0.001592     -1.422870      1.420945
Mn	      2.23560      2.11797     -0.04598         0.000070     -0.000455      0.000041
Mn	      0.00406      4.31944     -0.17088         0.000064      1.414187     -1.428766
O	      0.00371      4.15567     -2.08176         0.001249     -1.228798      1.159234
O	      2.23568      6.40654     -2.24847        -0.000331     -0.002045      0.001817
O	      0.00429      2.11692     -0.04634         0.001147      0.006388      0.000267
O	      2.23559      4.08243      0.06255        -0.000735     -0.381109      0.385857
O	      0.00418      6.58193     -4.48670         0.002028      1.228002     -1.151694
O	      2.23583      2.22946      1.91697        -0.001901      0.386700     -0.387700
