# total energy = -80.59175558 eV
 
CRYSTAL
PRIMVEC
0.000079 4.569605 0.000032 
3.965056 -0.000029 3.964962 
3.965029 -0.000020 -3.964959 
PRIMCOORD
12 1
Mn	      3.84681      0.00174      3.84547        -0.752861      0.053765      1.024044
Mn	      1.95405      2.22947     -0.02076         0.626122     -0.041621     -0.763378
Mn	      1.95367      0.00168      1.95227        -0.474195      0.024411      1.697859
Mn	      3.84707      2.22949     -1.91395         0.025614     -0.102141     -0.148771
O	      1.85911      0.00180      0.07387        -0.561788     -0.092110     -0.471943
O	      3.79308      2.22882     -0.07550         0.076000      0.113087     -0.300256
O	      3.79265      0.00224      2.00743        -0.225891     -0.105517      0.528195
O	      2.00807      2.22963     -1.85902         0.343603      0.109331     -0.050517
O	      3.94087      0.00180     -2.00910         0.655093     -0.040952     -1.295096
O	      1.85976      2.22962      1.85703        -0.384593      0.084697      0.767415
O	      5.87388      0.00254     -0.07465         1.549674     -0.083685     -1.235014
O	      0.07554      2.22965      0.07410        -0.876777      0.080736      0.247463
