# total energy = -80.67675014 eV
 
CRYSTAL
PRIMVEC
1.990544 4.586511 1.992262 
1.990922 -4.586854 1.992428 
3.986088 -0.000208 -3.987879 
PRIMCOORD
12 1
Mn	      5.83724      4.49314     -1.93576        -0.240445      0.402029      0.231929
Mn	      1.95124      2.24579      0.00017        -1.214162     -0.041233     -1.116877
Mn	      3.92222      4.49297     -0.02009         0.829616      0.417300     -0.828533
Mn	      3.90200      2.24558      1.95249         1.118180     -0.042623      1.212380
O	      3.82970     -2.24657      0.07314        -0.312885     -1.756072      0.325735
O	      1.87866     -0.00161     -0.07201        -1.036842     -0.132938     -0.424336
O	      3.82919      2.24394      0.07340         0.129790      1.766211     -0.115249
O	      2.02410     -2.24752      1.87921         0.264427     -1.700283     -0.269569
O	      3.97483     -0.00205      2.02443         0.407180     -0.134550      1.047814
O	      3.82862     -0.00096     -2.02965        -1.033456     -0.243965     -1.289629
O	      2.02355      2.24319      1.87941        -0.189718      1.706721      0.184518
O	      5.93114     -0.00209      0.07415         1.278316     -0.240596      1.041818
