# total energy = -80.15219832 eV
 
CRYSTAL
PRIMVEC
0.012924 2.172754 2.205978 
6.008429 0.006041 -2.173858 
-2.006855 6.468307 -4.377549 
PRIMCOORD
12 1
Mn	      3.94154      8.56215     -4.34836        -0.460632     -0.621800      0.472071
Mn	      2.10591      2.20910      0.10247         1.142151      0.035104      0.181329
Mn	      0.02431      4.42646      0.05847        -0.048457      0.642549     -0.703635
Mn	      3.94846      4.27664     -4.40393        -0.666239      0.190955      0.576220
O	      4.09956      4.48212     -2.15681         0.498268      0.660806     -1.392827
O	      4.03864      2.28145      0.02055        -0.436622     -0.023703      0.036812
O	      2.10066      6.40375     -2.22509         1.001530      0.129087     -0.050888
O	      1.93268      2.26073     -1.84478        -0.485954     -1.566587      0.394321
O	      4.03028      6.28905     -4.59755        -0.123980     -0.224227      0.135150
O	     -0.08901      6.43871     -4.53006        -0.609354      1.659162     -0.603441
O	     -0.06042      4.18767     -2.17885        -0.801268     -0.778901      1.332434
O	      0.04920      2.38842      0.20531         0.990557     -0.102444     -0.377547
