# total energy = -80.84360492 eV
 
CRYSTAL
PRIMVEC
2.130758 4.199766 2.105895 
2.137836 -4.196438 2.092215 
4.268863 -0.010278 -4.198083 
PRIMCOORD
12 1
Mn	      8.50885      0.00171     -0.02711        -0.031028      0.110769     -0.122330
Mn	      2.24834      2.09373     -0.05469         0.929919     -0.041256     -0.701694
Mn	      2.10631      0.01416      2.06644        -0.100976     -0.139003     -0.033744
Mn	      4.19327     -2.07866     -2.01578        -0.607790     -0.091129      0.838609
O	      4.27588     -2.03438      0.12631        -0.075160     -0.064557     -0.031458
O	      1.94973      0.11377      0.04711        -0.499876      0.721498      1.162475
O	      4.40551      2.01800      0.01059         0.064200     -0.060668     -0.062263
O	      6.21894     -1.96013     -2.08966        -0.150723     -0.150639     -0.015246
O	      4.30313     -0.13380      2.21930        -1.660652     -0.599355      0.497020
O	      4.18918     -0.11571     -2.27482         1.657454     -0.647027     -0.357210
O	      2.15159      1.97312      1.94908        -0.056937      0.262319     -0.016270
O	      6.53571      0.12765     -0.10874         0.531570      0.699048     -1.157889
