# total energy = -102.31327501 eV
 
CRYSTAL
PRIMVEC
0.000005 2.098786 2.098583 
4.255930 -4.322569 4.322146 
4.113477 4.250926 -4.250529 
PRIMCOORD
16 1
Li	      0.17456      0.01718     -0.01570        -0.009028      0.002867     -0.002370
Li	      2.31906      1.87484      0.22494        -0.020408     -0.013809      0.015088
Li	      4.11707      1.91628     -1.91458        -0.039679      0.020754     -0.022420
Li	      4.03013      0.15855     -0.15741        -0.012918     -0.008504      0.009420
Ti	      4.17543     -2.19535      2.19618        -0.059793     -0.022257      0.021892
Ti	      6.47272     -0.01842      2.11817         0.557258     -0.027142      0.027672
Ni	      1.99362      0.04024      2.06022        -0.011103     -0.043090      0.041171
Ni	      6.11605      2.08592      0.01463         0.087713     -0.040608      0.040422
O	      4.20520      2.08936      0.01073        -0.215997     -0.004055      0.004062
O	      4.25453     -0.20279      2.30277         0.067106     -0.092934      0.094487
O	      6.27963     -0.11622      0.11737         0.033299     -0.123140      0.125173
O	      4.19138     -2.07946      4.17969         0.040267      0.103301     -0.105453
O	      6.20340     -2.01395      2.01534        -0.052111      0.076397     -0.075310
O	      4.00737      4.25757     -2.15705        -0.616255      0.032397     -0.033330
O	      2.06738     -0.08444      0.08612         0.040271      0.138322     -0.139702
O	      2.24350     -2.14516      2.14656         0.211378      0.001502     -0.000801
