# total energy = -38.49290025 eV
 
CRYSTAL
PRIMVEC
2.102216 4.216811 2.102703 
4.190755 -2.106508 -2.092839 
2.092070 2.107356 -4.193153 
PRIMCOORD
9 1
Ni	      2.23507      0.12321     -2.11054         0.295973     -0.293841     -1.605410
Ni	      4.38796      0.12502     -4.26604        -1.470028     -1.001800      0.341399
Ni	      6.50952      2.17058     -4.34835         0.043709      0.105625      0.267419
O	      4.18997      0.03782     -2.21204        -0.817743      0.130667      0.141206
O	      6.62461      2.31378     -2.20339         0.237438      0.898527     -0.831915
O	      4.36185      2.02472     -4.46186         1.099276     -0.172055      0.400317
O	      4.28284      2.12629      0.11309         0.313346     -0.036428      0.408501
O	      2.04470      2.21227     -2.11997         0.195248      0.230710     -0.158530
O	      4.38226      4.30048     -2.02715         0.102780      0.138596      1.037011
