# total energy = -79.73392534 eV
 
CRYSTAL
PRIMVEC
0.005636 2.264359 2.117670 
3.994085 -4.506122 4.227270 
3.992669 4.518513 -4.214497 
PRIMCOORD
12 1
Mn	      7.92435      2.26489      2.13820        -0.952579      0.249685      0.175415
Mn	      1.97192      2.36515      0.03420        -0.994037      0.747107     -0.543170
Mn	      4.06280      2.31604     -2.10850         0.889377      0.553756     -0.474445
Mn	      4.06576      2.12858      2.15879         0.831543     -1.432510      1.228982
O	      3.95469      2.49918      0.15320        -0.601096     -0.118140     -0.150116
O	      3.98084     -0.00213      1.92201         0.056918      1.271613     -1.003901
O	      6.00314      2.12444      2.07135        -0.329284      0.272230     -0.181514
O	      4.04171     -2.28008      4.38297         0.924202     -1.114110      0.809197
O	      2.08124      2.32315     -1.90597         0.630789     -1.521626      0.636795
O	      4.01071      4.34058     -2.24694        -0.016241     -0.141305     -0.008498
O	      2.00150      2.32705      1.99183         0.257747      1.266240     -0.509004
O	      5.91517      4.52781      0.01137        -0.697338     -0.032942      0.020258
