# total energy = -79.63120421 eV
 
CRYSTAL
PRIMVEC
-0.011528 2.125073 2.233886 
8.232464 -0.033697 -0.010894 
-0.011203 4.207034 -4.425164 
PRIMCOORD
12 1
Mn	      8.10386      4.20762     -4.39928        -1.073794      0.111755      0.084867
Mn	      2.04842      2.10486      0.00874         0.005849      0.000531     -0.000886
Mn	      4.21453      4.17536     -0.01945         1.062297     -0.112519     -0.084138
Mn	      2.04282      4.20840     -2.20389         0.003853     -0.000869     -0.000193
O	      3.97192      2.17141      0.04275        -0.193754      1.144938     -1.675438
O	      6.03036      4.19812      0.01027        -1.171506     -0.007177     -0.011647
O	      3.96289      4.04539     -2.28250        -0.169187     -1.084868      1.665244
O	      6.28780      4.18489     -4.42853         1.170852      0.008534      0.010094
O	      0.12505      2.03821     -0.02518         0.194633     -1.146151      1.675732
O	      2.13186      4.09073     -0.15231         0.577271      0.006766     -0.002875
O	      0.12284      4.37142     -2.12517         0.169494      1.086485     -1.665045
O	      1.95399      4.32599     -4.25565        -0.576007     -0.007426      0.004286
