# total energy = -80.86288584 eV
 
CRYSTAL
PRIMVEC
-0.000189 2.020665 2.020967 
9.306839 2.078668 -2.077600 
0.026480 4.111862 -4.111124 
PRIMCOORD
12 1
Mn	      9.33286      6.13861     -6.13322         0.353903     -1.121577      1.113901
Mn	      2.32898      2.03916     -0.01747         0.323916      0.014133     -0.011006
Mn	      4.66352      2.07341     -2.07205        -0.337131     -0.004071      0.006993
Mn	      6.99252      4.16859     -2.14315        -0.349349      1.105679     -1.111746
O	      4.64216      4.02900     -2.00556         1.583687     -0.856068      0.850244
O	      6.99676      4.08089     -4.07548         0.014632     -1.093902      1.089773
O	      4.67454      2.13936     -0.11815        -1.519696      0.860206     -0.854346
O	      6.98355      2.19326     -2.18990         0.002184      0.661978     -0.654283
O	      0.00887      1.92214      0.10131         0.007059     -0.655860      0.663308
O	      2.31518      1.97272     -1.97216         1.516738     -0.857707      0.861460
O	      0.02081      4.14815     -2.12255        -0.007331      1.093695     -1.097712
O	      2.37628      4.19633     -4.19411        -1.588611      0.853494     -0.856586
