# total energy = -36.25938741 eV
 
CRYSTAL
PRIMVEC
0.000041 2.048528 2.048457 
6.704902 2.080374 -0.031694 
0.000115 4.221214 -4.220951 
PRIMCOORD
9 1
Ni	      0.01935      2.25034     -2.09016         0.279334     -0.458631      0.038671
Ni	      2.32422      4.35369     -2.22636         0.049552      0.222416      0.289956
Ni	      4.62917      6.53945     -2.28190        -0.199036     -1.143560      0.175138
O	      0.00651      2.25875     -0.13115         0.097784      0.775286     -0.622718
O	      2.32057      4.43397     -0.17653        -1.136778      0.869590     -1.129882
O	      4.63856      4.48041     -2.35388        -0.397108      0.441972     -0.176621
O	      0.01000      4.22624     -2.10027         0.454371     -0.548580      0.791535
O	      2.32794      6.40419     -2.14697         1.034180     -1.101577      0.849600
O	      4.64152      2.05904      0.06831        -0.182300      0.943082     -0.215679
