# total energy = -80.32722239 eV
 
CRYSTAL
PRIMVEC
0.016554 2.237043 2.092377 
4.177358 -2.232582 2.119549 
4.093226 6.675977 -6.208311 
PRIMCOORD
12 1
Mn	      4.08668      8.82036     -4.09249        -0.471876     -0.374177      0.348008
Mn	      2.09686      2.31819      0.00624         0.351707      1.067179     -0.951111
Mn	      4.19072      2.28694     -2.08428         0.383779     -0.005664     -0.015799
Mn	      6.20328      6.61504     -4.06994        -0.167305     -0.468602      0.325120
O	      4.11547      4.28929     -1.94542         0.148966     -1.132977      0.910705
O	      4.06521      2.35786     -0.02009        -0.900479      1.249415     -1.174301
O	      6.05842      4.43404      0.05895        -0.860332      0.085834     -0.037252
O	      4.28071      0.05109      2.23005        -0.510348     -1.398946      1.056587
O	      2.15606      2.22432     -1.94086         0.957375     -1.049535      0.897150
O	      4.12109      6.60100     -4.26122         1.363570      1.322546     -0.745163
O	      2.02896      2.12585      2.02538        -0.760806     -0.314744      0.250597
O	      6.34666      4.58550     -4.10838         0.465748      1.019671     -0.864540
