# total energy = -80.41248491 eV
 
CRYSTAL
PRIMVEC
2.076033 4.280472 2.087152 
4.154443 -4.270614 -0.019903 
4.173444 -0.000855 -4.193961 
PRIMCOORD
12 1
Mn	      6.23164      4.27818     -2.08840        -0.057908      0.004961      0.063922
Mn	      2.11500      2.14059     -0.03791         1.002469      0.013290     -0.999152
Mn	      6.29936     -2.11522     -4.16394         0.345837      0.318429      0.322119
Mn	      6.20065      2.12209     -0.06661        -0.350984     -0.328466     -0.328266
O	      4.24827     -2.06084     -0.02020        -0.542143     -1.987151     -1.162010
O	      6.22389      0.16100      0.08873        -0.043354      0.173674      1.421908
O	      1.97597     -0.15490      0.00725        -1.420165     -0.174441      0.040967
O	      4.10880      2.12273      0.00424         0.394958      0.022067      1.673285
O	      6.21464     -2.11657     -2.04904        -1.632015     -0.007814     -0.435087
O	      8.45866      0.24176     -2.09109         1.135381      0.848188     -0.004295
O	      4.14083     -0.23286     -2.24543         0.006726     -0.854919     -1.144181
O	      6.26585      2.06854     -2.21212         1.161197      1.972181      0.550790
