# total energy = -51.46526867 eV
 
CRYSTAL
PRIMVEC
-1.990880 4.109056 -1.990852 
2.028654 4.143773 2.028961 
2.013856 -0.017539 -6.033764 
PRIMCOORD
12 1
Ni	      2.00521      4.08752     -5.96571        -0.093312      0.038922     -0.083144
Ni	      0.00461      2.04323     -1.98472        -0.653580     -0.157602      0.538052
Ni	      2.02750      4.10444     -1.98827         0.402916      0.132099     -0.285863
Ni	      2.03074      2.04291     -4.01030         0.525970     -0.232292     -0.462745
O	      2.00858      2.11173     -2.11954        -0.863398      0.784868     -0.429238
O	      0.02330      4.03568     -1.85286         0.847661     -0.457113      0.762687
O	      0.13976      1.97447     -3.98895         0.430445     -0.882403      0.858592
O	      2.00052      2.21826     -5.92921         0.115019      0.230266     -0.368324
O	      1.89240      4.17390      0.01594        -0.598541      0.568304     -0.836880
O	      0.08592      4.26246     -5.99654        -0.387963      0.500986      0.063708
O	      1.96881      5.95652     -5.96075         0.350303     -0.186767     -0.097463
O	      2.03587      3.91225     -4.04669        -0.075518     -0.339269      0.340618
