# total energy = -51.55723926 eV
 
CRYSTAL
PRIMVEC
2.037065 4.025028 2.006493 
4.133390 -4.057625 0.004564 
4.137348 0.008394 -4.093967 
PRIMCOORD
12 1
Ni	      8.25537     -2.03813     -2.06365         0.007292     -0.005750      0.006237
Ni	      4.09435      1.99018      1.97419        -0.440542     -0.023911     -0.290861
Ni	      4.14576     -2.01765     -2.01194         0.430547      0.029693      0.280684
Ni	      6.18934     -0.00970     -2.06593        -0.021891      0.014255      0.000213
O	      3.99966     -2.07748      0.04445        -0.715992      0.224286     -0.054051
O	      6.20479      0.07583     -0.16776        -0.072886      0.559195     -0.683059
O	      2.03505     -0.10314      0.12975         0.074885     -0.560575      0.683076
O	      4.24017      2.05026     -0.08233         0.720200     -0.225821      0.053055
O	      6.17307     -1.88861     -2.03779        -0.242466      0.324453     -0.775893
O	      8.07911      0.01597     -2.06879        -0.684976      0.148397     -0.038604
O	      4.29810     -0.03470     -2.06299         0.698929     -0.152817      0.039950
O	      6.20432      1.86986     -2.09415         0.246900     -0.331406      0.779251
