# total energy = -49.79879361 eV
 
CRYSTAL
PRIMVEC
-0.000150 4.190907 0.000113 
3.867690 -0.000086 3.868240 
3.867772 -0.000164 -3.868323 
PRIMCOORD
12 1
Ni	      3.73974      0.00029     -0.01210        -0.474462     -0.427062     -0.489221
Ni	      5.63971      2.03330     -0.01211         3.029683      0.264672     -2.763080
Ni	      3.73989      2.03282      1.88793        -1.229499      0.228742      1.506730
Ni	      1.88818      0.00046     -1.86445        -1.054027     -0.359336     -1.063988
O	      1.96978      4.06498     -0.09444        -1.012038      0.169044      0.622410
O	      3.84137      2.03250      0.08929        -1.225589      0.387732     -1.455206
O	      3.84121      0.00059      1.78686         0.175273     -0.415531      1.384754
O	      5.53840      2.03266      1.78600         1.612701      0.380941      1.382215
O	      3.65799      0.00027     -1.78196         0.621229     -0.148994     -1.014365
O	      1.97007      2.03303      1.97030        -1.060167      0.109265      0.665177
O	      5.53810      0.00013      0.08926         1.325529     -0.298002      0.225023
O	      3.65791      2.03321      3.65790        -0.708633      0.108530      0.999552
