# total energy = -51.84534319 eV
 
CRYSTAL
PRIMVEC
2.024394 4.097689 2.047725 
2.024579 -4.097525 2.047327 
4.056771 -0.000224 -4.103148 
PRIMCOORD
12 1
Ni	      6.08037     -2.04670     -0.00745         0.001200      0.002262      0.003745
Ni	      2.02563      0.02622      2.04633        -0.001042     -0.155367      0.003858
Ni	      2.02762     -2.04697     -0.00313        -0.001588      0.009066      0.000118
Ni	      4.05388     -0.02185     -0.00519         0.000994      0.162020     -0.001033
O	      4.05347     -1.91673     -0.00514        -0.003089      0.811904      0.000113
O	      2.13759     -0.11447     -0.02050         0.669515     -0.354806      1.415003
O	      4.05393      1.88414     -0.00588        -0.000489     -0.902061     -0.006215
O	      2.02552     -1.87953      2.04745         0.000352      0.900629      0.004064
O	      3.94206      0.11933      2.06193        -0.671881      0.344353     -1.413767
O	      4.16585      0.11906     -2.07229         0.672532      0.350877      1.413023
O	      2.02615      1.92109      2.04651         0.002668     -0.813313     -0.002231
O	      5.97024     -0.11470      0.01051        -0.669173     -0.355563     -1.416678
