# total energy = -50.42633389 eV
 
CRYSTAL
PRIMVEC
0.000016 2.044998 2.043459 
6.031789 -0.011381 -2.032029 
-2.062010 6.230222 -4.182187 
PRIMCOORD
12 1
Ni	     -0.06536      4.11535     -0.02027        -0.275544     -0.365844      0.362030
Ni	      2.05217      4.12026     -2.07013         0.887825     -0.166592      0.166341
Ni	     -0.10773      6.21313     -2.11934        -0.895160      0.168429     -0.172696
Ni	      2.00905      6.21905     -4.16824         0.282073      0.362871     -0.378388
O	      4.03724      4.09079     -2.03954         0.306649      0.054994     -0.051026
O	      4.01323      1.91769      0.12959         0.197188     -0.345758      0.366458
O	      1.95431      6.19750     -2.10574        -0.462625     -0.297711      0.290193
O	      1.88544      2.15782     -2.15048        -0.666516      0.444630     -0.436925
O	      3.93875      6.23136     -4.18245        -0.308270     -0.052868      0.053908
O	      0.05858      6.13136     -4.08261         0.663476     -0.449297      0.443461
O	     -0.00979      4.13544     -2.08554         0.464044      0.297262     -0.289447
O	     -0.00803      2.18688     -0.13562        -0.193140      0.349884     -0.353909
