# total energy = -103.71093629 eV
 
CRYSTAL
PRIMVEC
-2.101784 4.142949 -2.101805 
2.059787 4.099101 2.058097 
6.286672 -0.020913 -2.124257 
PRIMCOORD
16 1
Li	      2.13512      4.10083      1.98685         0.017432     -0.002219     -0.023524
Li	      2.08197      2.05550     -0.03597        -0.004697     -0.008417      0.024608
Li	      4.13483      4.09849     -0.02618         0.002301      0.002778      0.024535
Li	      6.26424      4.09973     -2.13206         0.000443      0.004653     -0.022217
Ti	      1.97500      4.12518     -2.02666        -0.225959     -0.007627      0.213163
Ti	      4.28220      6.16863     -2.26096         0.186152      0.007222     -0.197006
Ni	      4.18100      2.05349     -2.11957         0.000424     -0.002641     -0.005364
Ni	      2.01522      6.17094     -0.00103        -0.021908      0.012441      0.030679
O	      2.15757      6.10079     -2.15035         0.020348     -0.093658      0.019615
O	      2.07821      4.14033     -0.13989        -0.012163     -0.132879     -0.241530
O	      4.16702      6.24513     -0.14095        -0.025794      0.092929     -0.030621
O	      4.09315      4.20914     -2.12771        -0.031537      0.145318      0.008282
O	      6.18885      6.15637     -2.12301        -0.270502      0.004239     -0.104592
O	      0.09171      4.10517     -2.12011         0.265294      0.127154     -0.000164
O	      6.24577      3.99394      0.02760         0.005524     -0.146148      0.028446
O	      6.24388      2.04604     -2.06824         0.094643     -0.003144      0.275694
