# total energy = -51.86423677 eV
 
CRYSTAL
PRIMVEC
1.961218 3.975083 1.951242 
3.936707 -3.981618 -0.001362 
3.931160 -0.006576 -3.898149 
PRIMCOORD
12 1
Ni	      7.56834     -1.93830     -1.90419         0.882137     -1.619167     -0.951734
Ni	      3.79000     -0.00031      0.00540        -0.435986      0.515956      2.463941
Ni	      3.80270     -1.92802     -1.86396        -0.817270     -2.205007     -0.777118
Ni	      5.70509     -0.00004     -1.88625         0.801076      0.757929     -1.448349
O	      3.79802     -1.75616     -0.01654        -0.180392     -1.362689      0.895150
O	      5.58340      0.01615     -0.07539         1.275914      0.549894      0.460701
O	      2.03525      0.02637      0.09091        -1.878709     -0.301000      0.813738
O	      3.84250      1.76065     -0.03260         0.307819      1.931842      0.388887
O	      5.67469     -1.77718     -1.88793         0.171048     -0.499257     -0.337806
O	      7.62349     -0.06306     -2.01552        -0.839191      0.515941      0.071705
O	      3.74408     -0.00305     -1.76449         1.204731      0.364955     -1.813425
O	      5.64606      1.78048     -1.82082        -0.491176      1.350602      0.234310
