# total energy = -51.56365913 eV
 
CRYSTAL
PRIMVEC
-2.012382 3.995438 -2.012484 
1.975678 3.958132 1.975862 
2.021131 0.018596 -6.009641 
PRIMCOORD
12 1
Ni	      1.96057      5.85297     -3.96768        -0.126882      0.443209      0.201347
Ni	     -0.00515      1.95577     -1.96586        -0.813102     -0.925167      0.469855
Ni	      1.94281      3.89537     -1.97753         0.552223      0.271305      0.893015
Ni	      2.00858      1.95589     -3.97963         0.787327     -0.544853     -0.926693
O	      1.95801      2.09877     -2.01250         0.190640     -1.081247     -0.449905
O	      0.12835      3.78918     -1.99205        -0.290398      0.324410      0.151531
O	      1.97793      5.69230     -1.99250         0.484141      1.068361     -0.278502
O	      1.92848      1.96770     -5.91858        -0.412376     -0.200429     -0.316395
O	      1.95715      4.00126     -0.16308        -0.127175      0.376914      0.401774
O	     -0.14852      3.92902     -5.87316        -0.707577     -0.091384     -0.295342
O	      1.97471      5.85952     -5.87195         0.380704      0.266538      0.436999
O	      1.92989      3.89825     -3.79445         0.082476      0.092341     -0.287682
