# total energy = -49.17331011 eV
 
CRYSTAL
PRIMVEC
2.095248 4.241108 2.119395 
2.095440 -4.240938 2.118984 
4.198758 -0.000232 -4.246759 
PRIMCOORD
12 1
Ni	      4.41801      2.04846     -2.12696        -0.942500      1.067556     -0.091266
Ni	      2.16990      0.02808      2.19208         1.087094     -0.432990     -0.475628
Ni	      2.17203     -2.19277     -0.00336         0.321792      1.025927      0.268363
Ni	      4.34262     -0.02341     -0.00557        -0.186093     -0.321097      0.169282
O	      4.34217     -2.05325     -0.00550         0.070817      0.691081      0.022363
O	      2.28984     -0.12263     -0.02196         1.200441     -0.941326      1.556084
O	      4.34267      2.01834     -0.00630        -0.038459     -1.005065      0.042312
O	      2.16979     -2.01340      2.19328         0.123017      1.408821     -0.219928
O	      4.22283      0.12783      2.20879        -1.451774      0.460708     -1.424312
O	      4.46257      0.12754     -2.21990         0.749944      0.542505      1.633938
O	      2.17046      2.05792      2.19228         0.444189     -1.569597     -0.108396
O	      6.39548     -0.12287      0.01125        -1.378468     -0.926525     -1.372812
