# total energy = -51.03499489 eV
 
CRYSTAL
PRIMVEC
-0.021169 2.093527 2.025352 
2.025524 -2.093398 -0.021235 
10.458938 12.799698 0.029912 
PRIMCOORD
12 1
Ni	      4.19248      2.18211     -2.18365         0.206721      0.178919     -0.208347
Ni	      6.21845      6.40384     -4.21031        -0.035270     -0.044559      0.035613
Ni	      8.26309     10.57227     -6.25825        -0.708109     -0.646721      0.707183
Ni	     10.39874     10.66916     -8.39529         0.659425      0.559352     -0.658392
O	     10.37013      8.51870     -8.36588        -0.105546     -0.084275      0.107699
O	      6.09943      8.50471     -4.09157        -0.435587     -1.387701      0.436820
O	      8.32641      8.57821     -6.32108         0.680686      0.670867     -0.683619
O	      6.33403      4.29305     -4.32561         0.490417      1.453220     -0.490325
O	      2.27117      4.28869     -0.26246         0.305836      1.242305     -0.301897
O	      4.08067      4.28922     -2.07185        -0.538168     -1.446955      0.535337
O	     10.31668     12.65816     -8.31363        -0.523448     -0.501726      0.523265
O	      2.06058      0.03418     -0.05890         0.003043      0.007277     -0.003337
