# total energy = -38.09599165 eV
 
CRYSTAL
PRIMVEC
-0.058019 14.685172 14.687717 
2.003836 10.534558 12.536118 
2.073273 6.285849 4.193446 
PRIMCOORD
8 1
Ti	      1.99329     12.63546     14.63178         0.004815     -0.002823      0.001844
O	      1.89864     16.76232     16.77443        -0.247606     -0.050014      0.048673
O	      2.10414     18.93837     18.83913         0.240977      0.045968     -0.046990
O	      1.99572     21.10557     20.98887         0.055783      0.230377      0.049651
O	      2.01524     23.08236     22.94307         0.037898     -0.051065     -0.241043
O	      2.02878     10.51080     10.45975        -0.002314      0.003992     -0.002833
O	      1.98827     12.61844     12.66912        -0.035406      0.047438      0.236905
O	      2.00901     14.59729     14.62407        -0.054146     -0.223872     -0.046208
