# total energy = -103.10503480 eV
 
CRYSTAL
PRIMVEC
4.058032 -0.000309 0.000059 
-0.000402 4.385145 -4.113683 
-0.000376 6.563548 2.041440 
PRIMCOORD
16 1
Li	      4.05709      0.16155     -0.05726        -0.000534      0.003468     -0.011519
Li	      2.02876      2.30908     -0.11886        -0.000285     -0.026515     -0.003368
Li	      4.05730      4.37975     -0.02656        -0.001008     -0.010323     -0.001324
Li	      4.05721      8.61611      0.07704        -0.000714      0.010961      0.028602
Ti	      4.05586      6.46184     -2.15043        -0.000419     -0.203901     -0.274446
Ti	      2.02047      8.88408     -2.08599        -0.001993      0.288346     -0.029295
Ni	      2.02865      6.59382      0.04821         0.000589      0.060645      0.068378
Ni	      2.02890      4.26159     -1.97382         0.000257      0.032503     -0.001052
O	      4.05785      2.17025      0.11190        -0.000669     -0.028839      0.283293
O	      2.02926      4.43003      0.08086        -0.000153     -0.070604      0.228064
O	      0.00001      4.55860     -2.06336        -0.000196      0.221763      0.014953
O	      2.02864      6.63270     -2.04864         0.000825      0.058895     -0.119561
O	     -0.00035      6.59665     -0.12003        -0.000351      0.013722     -0.065060
O	      2.02926      8.76188     -0.12816        -0.000176     -0.055522     -0.119617
O	      0.00206      8.59857     -2.08447         0.006846      0.000085      0.007491
O	      2.02786     10.74062     -2.02496        -0.002018     -0.294684     -0.005542
