# total energy = -139.68596572 eV
 
CRYSTAL
PRIMVEC
0.034627 10.296284 10.359013 
4.251086 8.191586 12.493149 
4.218776 4.116353 4.162890 
PRIMCOORD
16 1
Ti	      2.20060     10.31023     12.45413        -1.769139     -1.744696      2.274221
Ti	      4.17948      8.19909      8.31706         1.774221      1.747137     -2.277772
Ti	      4.27637     10.35473     10.48653         1.262229     -0.343055     -2.922047
Ti	      2.02848      6.22745      8.28488         0.424054     -1.395225     -1.690878
Ti	      4.35230     12.28244     12.48620        -0.429213      1.381791      1.688394
Ti	      2.10425      8.15469     10.28412        -1.263541      0.345984      2.930158
O	      2.18046     12.35181     12.45859         0.931093      0.424671     -1.526092
O	      4.27499     12.33190     14.55976         2.019832     -0.183761     -0.703457
O	      6.28886     12.37752     16.58337        -1.521707      1.393030     -1.831099
O	      4.34251     14.32367     16.68069         1.526517     -1.385656      1.837916
O	      6.35666     14.36916     18.70443        -2.024359      0.183255      0.701046
O	      4.20002      6.15741      8.31238        -0.932424     -0.431808      1.523308
O	      6.40635     16.53627     20.66703        -0.197980     -1.408748      1.785166
O	      4.21810      8.24495     10.40579        -1.319160     -0.139178     -1.474359
O	      2.16262     10.26465     10.36559         1.322650      0.147927      1.475742
O	      4.22515     10.16526     12.59680         0.196927      1.408334     -1.790248
