# total energy = -68.61465635 eV
 
CRYSTAL
PRIMVEC
0.001879 2.105539 2.106490 
2.101500 0.001883 2.106479 
10.605005 10.625097 -0.088039 
PRIMCOORD
8 1
Ti	      4.24717      4.25861      4.17390        -2.519706     -2.507817      2.475191
Ti	      4.21840      4.22398     -0.01357         2.512973      2.498940     -2.470733
Ti	     10.58145      8.50338      2.03550         0.004148      0.005769     -0.004734
O	      2.16694      2.17554      2.03565         1.859611      1.857446     -1.843993
O	      4.23261      4.24092      2.08024        -0.001624      0.001355      0.001218
O	      6.29847      6.30702      2.12445        -1.856564     -1.855362      1.843076
O	      8.49803      8.52493      2.00813         2.003978      1.977909     -1.949329
O	     10.56584     10.58552      2.06251        -2.002816     -1.978239      1.949305
