# total energy = -79.49501623 eV
 
CRYSTAL
PRIMVEC
-0.000131 2.091316 2.093660 
14.230770 -0.171499 14.825982 
4.065906 2.091126 2.093590 
PRIMCOORD
10 1
Ti	      8.11218      2.04046      6.33085         0.011375      0.004013     -0.012326
Ti	     10.16620      1.98275     12.66290        -0.001409      4.274173     -4.244438
Ti	     16.26484      1.92762     14.82607         0.002010     -4.279351      4.250313
O	     16.26522      2.03346     16.80580        -0.004503      2.818182     -2.844966
O	      4.06975      1.95399      4.32464        -0.022885     -0.991368      1.001507
O	      6.11208      2.04111      6.33058         0.037570      0.007322     -0.001563
O	      8.13556      2.12824      8.33628        -0.021836      0.997774     -1.003366
O	     10.16606      1.87723     10.68295        -0.004451     -2.825436      2.846541
O	     12.19850      1.96006     12.69831         0.007642     -1.469642      1.411130
O	     14.23217      1.95028     14.79008        -0.003514      1.464333     -1.402831
