# total energy = -121.20420892 eV
 
CRYSTAL
PRIMVEC
0.090915 6.270543 6.330264 
6.316437 2.132880 8.488730 
4.174570 2.104392 2.156564 
PRIMCOORD
14 1
Ti	      2.18729      6.28717      8.45421        -0.001871     -0.017525      0.008983
Ti	      6.36416      4.27515     10.58322        -2.911824     -1.657999     -0.524408
Ti	      8.30554      4.28096      8.59233         0.438026     -1.956098     -2.972643
Ti	      6.46836      6.25981     12.63434        -0.416070      1.963378      2.936844
Ti	      8.41090      6.26302     10.63922         2.879872      1.676844      0.550721
O	      2.18712      2.04957      2.20675        -1.948121      0.586252     -1.646335
O	      4.23117      2.15018      4.32425         1.618543      2.318788      1.667092
O	      6.32271      8.33333     12.65514        -1.364716     -1.596322     -1.676682
O	      8.44986      6.33285     12.72543        -0.139802     -0.162824     -2.211642
O	      4.22875      4.20390      6.36769         0.003659     -0.003422      0.002743
O	      6.32484      4.20680      8.49926         0.135488      0.159164      2.200204
O	      8.54268      8.47738     14.89963         1.363479      1.593240      1.683794
O	      4.22718      6.25712      8.41135        -1.618636     -2.314784     -1.672629
O	      6.27088      6.35729     10.52947         1.961974     -0.588692      1.653959
