# total energy = -61.78387542 eV
 
CRYSTAL
PRIMVEC
-0.000554 2.081198 2.081612 
16.500040 -0.045539 16.694026 
8.250945 2.070168 6.253671 
PRIMCOORD
10 1
Ti	     10.23236      2.06421      8.33923         0.703597      0.000380      0.001538
Ti	     14.51823      2.03872     16.68674        -0.723564     -0.002628      0.000096
O	     18.57975      1.94268     18.86780         0.026872     -0.725030      0.724656
O	      4.11866      2.07578      4.16580         0.021204     -0.003263      0.001736
O	      6.16520      2.16167      6.15643        -0.028523      0.710192     -0.709400
O	      8.38781      2.06239      8.34010         0.070196      0.001331      0.000926
O	     10.33159      2.15178     10.33356         0.028818      0.722879     -0.722746
O	     12.37447      2.05316     12.51064         0.004874      0.003018     -0.003135
O	     14.41222      1.94977     14.69340        -0.028720     -0.707418      0.707584
O	     16.35917      2.04103     16.68607        -0.074752      0.000539     -0.001254
