# total energy = -57.45215236 eV
 
CRYSTAL
PRIMVEC
0.022946 6.156695 6.276542 
4.089431 4.100963 8.351225 
4.067806 2.051206 2.077271 
PRIMCOORD
8 1
Ti	      4.12924      6.14948     10.33578        -0.472622      0.016884     -1.587994
Ti	      4.04967      6.15065      6.36747         0.480560     -0.019388      1.589482
O	      5.94084      6.15068     10.40079        -0.122576      0.006431      0.023311
O	      4.07473      8.20458     10.52520         0.112978     -0.018065      1.079727
O	      2.04190      4.10214      4.17618         0.008459      0.001063     -0.000710
O	      4.10147      4.10091      6.17808        -0.120159      0.018541     -1.073845
O	      2.23515      6.15406      6.30598         0.124353     -0.006362     -0.025010
O	      4.09192      6.15167      8.35181        -0.010994      0.000895     -0.004962
