# total energy = -209.00437994 eV
 
CRYSTAL
PRIMVEC
0.007385 6.196248 6.220819 
10.560084 1.993182 12.527358 
6.325559 4.107459 6.252159 
PRIMCOORD
24 1
Ti	      6.22085      4.07335      6.30950         2.988044      2.180458     -0.891406
Ti	     12.65966     10.31190     18.80670        -1.059963     -2.352877     -1.942102
Ti	     14.74589     10.21711     20.91514         1.491948     -4.407635     -0.839956
Ti	      2.21935      2.08066      4.11250        -2.961597     -2.135073      0.841912
Ti	      4.21270      2.10229      6.19776        -1.095963     -2.846719      0.078428
Ti	     12.66668      6.12651     14.59919        -0.013838      0.012642      0.043516
Ti	     14.78770      6.04065     16.74321         1.029103      2.881750     -0.018974
Ti	      4.25834      4.13967      8.25965        -1.487512      4.472494      0.790735
Ti	      6.34533      4.03632     10.35969         1.116583      2.292969      1.987842
O	     12.63012      3.99773     14.61123         1.487689      1.491857      0.236756
O	      4.34362      8.11445     10.40277        -1.386232      1.813715     -0.028797
O	      6.36236      8.22797     12.46174        -1.458055      0.447522      1.097694
O	      8.43552      8.22740     14.57546        -0.381897     -1.499900      1.304224
O	     10.56061      8.18161     16.66203        -0.455655     -0.299480     -0.184432
O	     12.64516      6.11845     16.70567         1.443955     -0.446746     -1.094705
O	      4.10588      4.23142      6.23902         1.415342     -1.823423      0.044475
O	      6.36783      4.15018      8.33610        -1.481098     -1.489341     -0.280542
O	      8.37179      4.10336     10.43079        -1.612381     -0.451384     -0.153468
O	     10.62476      4.04490     12.51806         1.615219      0.473703      0.135422
O	     12.58025      8.27027     18.67887        -1.643222      1.165611     -1.231492
O	      4.22394      6.17478      8.32162        -0.001821     -0.085665      0.005443
O	      6.42537      6.07605     10.48832         1.630322     -1.168852      1.246514
O	      8.44612      6.16303     12.50883         0.457278      0.305632      0.161985
O	     10.57480      6.12756     14.58743         0.363750      1.468743     -1.309073
