# total energy = -187.50320116 eV
 
CRYSTAL
PRIMVEC
0.034741 14.474020 14.654469 
4.199931 2.068856 6.289243 
4.200694 6.203914 6.289611 
PRIMCOORD
22 1
Ti	      0.07379     14.47031     14.66092         3.003506     -0.019869     -0.040651
Ti	      6.30338      8.27028     10.51880         3.709571      0.003455     -2.879253
Ti	      4.19516      6.20064     10.45527         2.043281      0.012616     -1.954209
Ti	      4.20612      8.26992     12.42553        -2.129579     -0.024068      2.705072
Ti	      6.25857     12.40506     14.73508         3.077254      0.008289     -3.095439
Ti	      4.10146     14.46890     14.71166        -5.592559      0.039063     -1.392736
Ti	      2.20449      8.26846     10.47887        -1.348446      0.001741      3.270962
Ti	      8.39735     18.60901     23.03653        -4.621889     -0.010946      3.788173
O	      2.23791     16.53932     16.86970         3.105899      0.001887      2.069675
O	      4.19930     16.54032     18.89076        -2.333985      0.000023     -0.939143
O	      2.06655      4.13312      4.22887        -2.439777     -0.012055      0.156895
O	      4.24369     18.60752     20.93989        -0.188274      0.017321      0.136429
O	      2.12367      6.20037      6.32389        -0.957709      0.002339      0.072850
O	      4.15959      6.20082      8.34724        -2.728762      0.003456      1.563861
O	      6.23333     10.33776     14.65019        -1.152094     -0.018419      1.359461
O	      4.24181      8.26830     10.28279        -0.172467      0.013729      1.715115
O	      2.09956     10.33658     10.58347         0.182237     -0.020372     -1.638399
O	      4.23736     10.33665     12.58424         0.067269     -0.005417     -0.642141
O	      6.41537     14.47295     18.77079         2.907746      0.005699     -3.218506
O	      4.10095     12.40230     14.60197         1.645927      0.012442      0.606136
O	      2.08128     14.47064     14.68686         2.506791     -0.004249      0.060793
O	      4.26046     14.47240     16.79222         1.416058     -0.006667     -1.704946
