# total energy = -217.84314629 eV
 
CRYSTAL
PRIMVEC
-0.043629 31.846516 31.238713 
2.062057 6.358133 8.338506 
2.057064 10.622030 8.321052 
PRIMCOORD
25 1
Ti	      2.10350     12.67636     10.41814        -4.781796      0.190125     -2.125584
Ti	      2.00501     10.76371     12.58401        -1.767910     -0.926756     -1.167863
Ti	      2.08196     16.83663     14.46840         1.805584      0.866430      1.059480
Ti	      2.03210     14.89757     16.67150         2.827163     -0.327154      4.168405
Ti	      2.04165     21.33918     22.93751        -0.075781     -0.088364     -1.564029
Ti	      2.04405     27.47476     25.05774         0.768696      0.309328      2.528838
Ti	      2.04702     27.62016     29.17931         0.032160      0.075633     -3.037548
Ti	      2.03151     33.84541     31.22783        -1.967881      0.683836     -2.343348
Ti	      2.04503     32.06305     33.31898        -0.190301     -0.778279      0.362990
Ti	      4.02894     44.50232     43.69351         2.757682      0.083187      2.446745
O	      2.06923     34.20432     33.29003        -0.219343     -0.634112      0.134207
O	      1.99908     36.02722     35.38506        -1.345200      0.631068     -1.264217
O	      2.04560     38.17200     37.44497        -0.766086     -0.047817     -1.867656
O	      2.06470      8.45190      8.37219         0.513886     -0.020292      1.840903
O	      2.06667     10.59815     10.45140         1.539194      0.636071      1.167211
O	      1.91932     12.87825     12.46455         1.124269     -0.510708      0.334232
O	      2.12919     14.74280     14.60755        -0.888328      0.409434     -0.291243
O	      2.06168     16.98279     16.61049        -1.547400     -0.527479     -1.355359
O	      2.13196     19.09685     18.62392         2.293212      0.038464     -2.730496
O	      1.99665     21.28922     20.83188         0.351411     -0.037396      2.160969
O	      2.06403     23.47819     22.89972        -0.023925     -0.376429      0.865573
O	      2.03263     25.35103     25.10088         0.312947      0.486910     -1.109612
O	      2.02655     27.54155     27.10909        -1.845612      0.083570     -0.469699
O	      2.03666     29.70663     29.18867         0.053026     -0.704819      2.467890
O	      1.94782     31.74645     31.24388         1.040334      0.485549     -0.210787
