# total energy = -183.14949030 eV
 
CRYSTAL
PRIMVEC
0.035616 27.175317 27.231034 
2.111615 4.177650 6.290093 
2.114481 18.806123 16.767932 
PRIMCOORD
21 1
Ti	      2.25886     31.36736     33.42243        -2.738896     -1.067588     -1.279074
Ti	      4.12318     25.02327     25.12529         2.398324      0.603309      3.546534
Ti	      2.24030     25.01218     23.12988        -1.093672     -0.571638     -1.983470
Ti	      2.07643     27.15460     25.18375         0.542374      1.872461     -1.363269
Ti	      4.14132     33.34419     33.53674         0.787094      0.932265     -1.014946
Ti	      4.21644     35.59227     35.70488        -0.328652     -0.700693      1.087952
Ti	      0.10507     18.83063     18.85923        -1.961288     -1.318609     -0.688356
Ti	      2.14692     25.15350     27.16391         3.188728     -0.539039      1.846517
O	      2.16368     29.31179     29.31552        -0.214288      1.371687     -1.356759
O	      2.09349     31.38018     31.41845         2.010648     -0.039927      0.073461
O	      2.14317     33.50375     33.44082         0.178753     -1.616859      1.362953
O	      2.13347     35.51573     35.61866         0.129259      0.265147     -0.107977
O	      2.09209     37.65840     37.72673        -1.128842      0.963682     -0.008896
O	      2.07893     12.49829     12.53385        -1.506222     -0.974752      0.468067
O	      2.18445     14.58211     14.71717         1.505449     -1.767212      1.816185
O	      2.12181     16.68501     16.80405         1.216445      0.582639      1.458116
O	      2.20110     18.80868     18.86793        -1.204483     -0.132046     -1.480838
O	      2.04429     20.89195     20.87865        -2.985056     -0.057423     -2.853493
O	      2.18025     22.97900     23.10448         1.598034      1.912559      1.719094
O	      1.95693     25.07285     25.13810         1.273964     -0.089338      0.037270
O	      2.25082     27.17335     27.32343        -1.667676      0.371373     -1.279068
