# total energy = -101.57104797 eV
 
CRYSTAL
PRIMVEC
-0.001077 0.010404 -4.056809 
-2.051393 8.871699 -2.051417 
4.096651 -0.001152 0.000902 
PRIMCOORD
16 1
Li	     -0.00969      0.26570     -4.06450         0.003286     -0.019722     -0.000666
Li	      2.04111      2.12915     -4.05222         0.003469      0.003009      0.007742
Li	      0.01900      4.13605     -4.03341         0.000698     -0.009426      0.001674
Li	     -0.01210      8.87400     -4.08672         0.003159      0.000077      0.000514
Ti	      2.10933      4.33050     -1.92246         0.006657     -0.465700      0.112139
Ti	     -0.00142      6.80831     -2.07810        -0.005820      0.806898     -0.001748
Ni	      2.03955      6.88326     -4.09135         0.002669     -0.027908     -0.011260
Ni	      0.00162      1.97876     -2.03744        -0.011391      0.020785      0.015280
O	      2.04027      2.50778     -2.03359         0.017217      0.471532      0.019392
O	     -0.01397      8.56618     -2.05434         0.011461     -0.740679     -0.018208
O	     -0.03128      4.58427     -2.04156        -0.034236      0.026799      0.009850
O	      2.03572      6.50976     -2.06755        -0.019284     -0.063367     -0.002461
O	     -0.00726      2.20392     -4.06300         0.002474      0.041804      0.000346
O	      2.04053      4.59749     -4.10689         0.003356     -0.064781     -0.140385
O	      2.03401      8.84864     -4.08474         0.005824      0.033672     -0.004891
O	     -0.00947      6.66605     -4.08617         0.010459     -0.012993      0.012682
