# total energy = -121.08561331 eV
 
CRYSTAL
PRIMVEC
-0.001811 2.075210 2.076772 
18.628857 -0.130188 18.805444 
6.219249 2.068556 4.154947 
PRIMCOORD
14 1
Ti	      8.22452      2.03975      6.25969         1.546397      1.084538     -1.099470
Ti	     10.35603      2.04110      8.33376         0.026680     -0.006986      0.007824
Ti	      6.27011      2.04759      8.33108        -1.576187     -1.070845      1.083098
Ti	     18.55858      2.02508     16.65582        -2.216493     -1.954327      1.915691
Ti	     14.56570      1.93184     16.74066         2.205674      1.949986     -1.910256
O	     20.69079      1.93847     20.88938        -0.227054     -0.592006      0.569138
O	      4.08999      2.04393      4.18280        -2.000153     -1.887702      1.911108
O	      6.15556      2.10717      6.19643         0.728738     -1.459240      1.472515
O	      8.33716      1.97948      8.39435        -0.704018      1.464129     -1.474491
O	     10.40494      2.04436     10.40630         1.979630      1.883949     -1.908514
O	     12.43158      2.01817     12.50730         0.237446      0.600574     -0.577130
O	     14.43594      1.93658     14.65694        -1.375174     -1.913689      1.987038
O	     16.56315      1.97864     16.69841        -0.012573     -0.001890      0.000691
O	     18.68790      2.02103     18.73897         1.387089      1.903508     -1.977242
