# total energy = -168.11550315 eV
 
CRYSTAL
PRIMVEC
-0.143588 26.938845 26.947838 
2.083002 2.061873 4.145284 
2.055451 10.366122 8.275848 
PRIMCOORD
20 1
Ti	     -0.08069     26.88380     26.94894        -0.779282      0.714284     -0.145312
Ti	      4.05721     14.54935     14.50536         1.904435     -1.572532     -0.016174
Ti	      2.13518      6.30125      8.30777        -3.580779     -0.759913      0.312631
Ti	      0.02701     12.35471     12.37161        -0.686637     -3.628821      3.019888
Ti	      3.97116     27.00410     26.99350         0.820141      3.441923     -2.701387
Ti	      3.94343     35.18789     35.21317         3.788249     -0.300584     -0.704074
Ti	     -0.08608     24.82325     24.85502        -1.271868      1.467267      0.294746
O	      1.88247     28.94451     29.04539        -1.673421     -1.568988      1.772271
O	      1.98532     31.02319     31.04854        -1.607413      0.393952      1.558480
O	      2.06899      6.20971      6.20926        -0.032543      0.137082      0.000156
O	      1.97408      8.31779      8.34260         1.673299      0.090458     -1.372408
O	      2.10319     10.44000     10.33033         1.752591      1.371863     -1.793610
O	      2.07615     12.47212     12.48213         0.340749      1.357950     -2.043959
O	      1.98131     14.54560     14.48078         1.527197     -0.003473     -0.413148
O	      2.07660     16.49963     16.63708         2.493646     -0.569151      1.285266
O	      1.97245     18.51504     18.69631        -0.203635     -2.869090      0.037645
O	      2.03322     20.85662     20.66785         0.204134      3.001931     -0.017109
O	      1.93168     22.85760     22.72747        -2.532504      0.755991     -1.240466
O	      2.00962     24.83254     24.89266        -1.365453      0.029098      0.314224
O	      1.95508     26.94683     26.86395        -0.770908     -1.489245      1.852340
