# total energy = -213.59931327 eV
 
CRYSTAL
PRIMVEC
-0.454692 33.021160 33.713040 
1.906694 12.382949 14.721056 
1.906710 16.510577 14.721064 
PRIMCOORD
25 1
Ti	      0.01607      2.06571      2.14485         2.320467     -0.001174     -5.106942
Ti	      1.85555     20.63977     19.00024        -3.470594      0.000791     -0.109062
Ti	      1.84389     18.57597     20.92850        -1.679669      0.000869      1.697096
Ti	     -0.00043      8.25683      8.53322        -2.943460      0.003583      1.852010
Ti	      1.72088     26.83180     29.43135         5.068451     -0.002493     -3.539062
Ti	      3.50649     45.40595     46.26473        -3.719882     -0.001815      4.803579
Ti	      3.32906     51.59713     52.69139         3.604851     -0.000053      0.057109
Ti	      1.54272     43.34229     42.13128         3.962872     -0.001654     -2.866062
Ti	      1.51794     41.27840     44.13851        -2.742107      0.000832      4.821229
O	      1.62641     35.08675     35.87933        -1.189601     -0.001757      1.686926
O	      1.60655     37.15034     37.95758        -0.623838      0.002184     -0.015655
O	      1.52995     39.21464     40.03227        -2.456822     -0.002995     -0.526499
O	      1.60942     41.27861     42.02686        -1.814081     -0.003289      1.694620
O	      1.51697     43.34213     44.22743         1.251342      0.000979     -1.811335
O	      1.57227     45.40588     46.25513         3.236784     -0.000374     -3.267422
O	      1.82312     14.44835     14.86338        -2.903567      0.002364      2.900878
O	      1.87199     16.51209     16.88482        -0.928360      0.001310      1.334952
O	      1.66405     18.57597     18.90074         1.736502     -0.000374      0.526303
O	      1.77302     20.63975     21.07923         0.446672      0.002844     -0.173530
O	      1.75023     22.70375     23.10353         0.771144      0.000217     -0.534184
O	      1.83573     24.76797     25.20434         2.980454     -0.003559     -3.925061
O	      1.68222     26.83163     27.44836        -3.443866      0.000090      2.992471
O	      1.74199     28.89539     29.45372        -2.021058     -0.001915      1.278128
O	      1.68954     30.95875     31.54144         1.504346      0.003950     -1.412681
O	      1.73060     33.02261     33.55425         3.053021      0.001440     -2.357805
