# total energy = -166.31981223 eV
 
CRYSTAL
PRIMVEC
-0.026099 4.190930 4.191617 
12.364990 -0.028964 12.524449 
4.123467 2.084020 2.080770 
PRIMCOORD
19 1
Ti	      6.15671      6.22516      8.39867         0.062102      1.173641     -0.947456
Ti	      8.24043     -0.01298      8.35021        -0.004358     -1.479849      1.375623
Ti	     12.35633      2.20947     14.47772         0.070040      1.157331     -1.037641
Ti	      6.18175      4.13773      6.32112        -0.111517      1.734631     -2.030413
Ti	      8.22211      4.12706      8.38519         0.139849     -0.250451      0.391649
Ti	      6.17138      2.13452      8.30790        -0.077089     -1.279296      1.243699
Ti	     12.35410      4.14499     12.54121         0.008556     -0.530731      0.640673
O	      1.98301      2.04994      2.12424        -1.337960     -2.023835      2.008677
O	      4.10635      2.13449      4.17589        -0.005190      0.699334      1.395940
O	      6.25091      2.02829      6.25312        -1.219956      1.474755      0.047917
O	      8.28758      2.05683      8.32507        -1.488423      0.170261      1.245642
O	     10.27983      2.09680     10.45163         0.074135      2.061389     -0.283318
O	     12.35938      2.05383     12.48973         0.035613      2.103728      0.537912
O	      2.11599      4.15984      4.22600         1.292105     -2.104090      2.042506
O	      4.11811      4.17295      6.22219        -0.057462     -1.391065     -0.696876
O	      6.07881      4.18653      8.42675         1.191565      0.002363     -1.528827
O	      8.17507      4.19459     10.46579         1.487357     -1.230288     -0.206341
O	     10.30273      4.15121     12.50770        -0.022627      0.292354     -2.085171
O	     12.34769      4.19951     14.63254        -0.036740     -0.580183     -2.114196
