# total energy = -155.65474730 eV
 
CRYSTAL
PRIMVEC
0.069937 27.350919 26.888267 
2.100804 2.109855 4.136161 
2.100752 8.404364 6.221769 
PRIMCOORD
19 1
Ti	      0.07695      2.06583      2.03822        -4.445662      0.443142      2.591331
Ti	      2.05720     14.70908     12.57049        -0.401327      1.153033      0.470158
Ti	      2.09405     20.94266     18.67459         1.713785     -0.574663     -2.204759
Ti	      4.14545     29.38645     28.90139         5.738208      0.785928      0.828380
Ti	      0.08299     21.08251     20.69820        -1.155532      0.901183     -3.862946
Ti	      2.19362     27.44387     28.89265        -2.038419     -4.687642      1.174949
O	      2.12384     29.53974     29.03415         1.122315     -1.976643     -2.175198
O	      2.18210     31.61356     31.05023         2.788666      1.923922      1.287662
O	      2.01412      6.25041      6.14501        -0.232637     -1.518837     -2.174491
O	      2.14315      8.46636      8.33287         2.548229      2.137560      0.228781
O	      2.10532     10.36199     10.27852        -0.018405     -0.698453     -2.026280
O	      2.11950     12.68612     12.39902         0.378543      0.703693      0.251830
O	      2.13190     14.72270     14.46576        -0.162034     -0.109741      1.004131
O	      2.23707     16.68170     16.55853         0.860894     -1.229360      0.130582
O	      2.06340     19.01955     18.61352        -2.622255      1.452946     -0.178503
O	      2.16213     20.98275     20.66955        -2.875386      0.314180      1.366244
O	      2.18989     23.10018     22.73863         1.166396     -1.764587      2.664465
O	      2.16409     25.22977     24.81614        -2.257548      0.513674      0.089119
O	      2.12467     27.40707     26.88269        -0.107833      2.230668      0.534544
