# total energy = -83.17058539 eV
 
CRYSTAL
PRIMVEC
-0.000391 4.191628 4.193435 
7.890592 -0.006431 8.392530 
3.944980 4.191315 4.193352 
PRIMCOORD
11 1
Ti	      1.98695      4.19121      6.29209         0.189779      0.003733      0.003156
Ti	      5.92785      4.18809     10.48994         0.137985      0.004237     -0.009508
Ti	      9.72609      6.28240     12.58617        -0.038703      0.015590      0.000316
O	      9.87316      6.27763     14.59982        -0.046973      0.037622     -0.807832
O	      3.95373      6.28592      8.38920         0.026075      0.000427     -0.002102
O	      5.92813      2.09526      6.37748        -0.046795     -0.051591      0.815331
O	      7.90164      6.28291     12.58585         0.013303      0.001350      0.000790
O	      9.87494      4.26959     12.59025        -0.056372      0.807813     -0.045530
O	      3.95774      4.19006      6.29198        -0.085145      0.001343      0.001053
O	      5.92951      4.10572      8.38851        -0.054238     -0.818947      0.041471
O	      7.90585      4.18680     10.48899        -0.038917     -0.001578      0.002854
