# total energy = -114.78544229 eV
 
CRYSTAL
PRIMVEC
0.028444 4.183540 4.089993 
6.320762 2.123854 8.191134 
8.427472 6.309158 6.158523 
PRIMCOORD
16 1
Ti	      8.46624      8.26138     12.20069         0.288537      0.968183     -0.696091
Ti	     10.54089      8.55750     14.42824        -0.291555     -0.970575      0.692740
Ti	      8.36812      8.28245      8.23306         0.242565     -0.058569      0.609048
Ti	      4.28990      2.22926      6.11455        -0.239395      0.055036     -0.606640
O	      8.46663      4.22814     10.16479         0.236766     -0.070272     -0.775749
O	     10.52878      6.17445     10.28509        -0.032313     -0.210106      0.040230
O	      4.19303      6.27133      8.18730         0.171724      0.233663      0.511010
O	     12.82323     10.59042     16.36763         0.416963      0.792493      0.202830
O	      6.18385      6.22861     10.26088        -0.411569     -0.793891     -0.199599
O	      8.49352      8.42412     10.25044        -0.171790     -0.233966     -0.510910
O	      8.44957      6.46058     12.25352         0.028062      0.215664     -0.040708
O	     10.51195      8.40692     12.37387        -0.237584      0.072945      0.776093
O	      4.23597      4.10071      6.14517        -0.126245      0.215899      0.002450
O	     12.46998      8.38587     14.23089        -0.586460      0.260757     -0.799324
O	      6.50865      4.24940      8.30773         0.587923     -0.257981      0.800516
O	      8.42189      6.41116      8.20289         0.124372     -0.219279     -0.005898
