# total energy = -50.10107499 eV
 
CRYSTAL
PRIMVEC
0.000178 2.172410 2.171665 
4.271771 -2.199160 2.198767 
2.086751 2.164372 -4.335111 
PRIMCOORD
6 1
Ti	      2.21105      0.02419      2.14629        -1.576842      1.244924     -1.396890
Ti	      4.47261      0.01415     -0.01566         3.478187     -1.561785      1.112548
O	      4.35528      0.02662      2.21992        -2.318375      2.839686     -2.769015
O	      2.17397      2.23998     -2.23972        -1.001907     -0.234434      0.351096
O	      2.25366     -0.06561      0.06298         1.897791     -2.219872      2.490954
O	      4.38464      2.22573      0.02174        -0.478855     -0.068520      0.211306
