# total energy = -139.78472265 eV
 
CRYSTAL
PRIMVEC
-0.006622 14.585753 14.439328 
4.201564 12.484702 16.517633 
4.199314 8.328684 8.255110 
PRIMCOORD
19 1
Ti	      2.25452     14.58214     16.47980        -0.721130      0.207679     -0.122605
Ti	      2.12972     16.69426     18.55328        -0.111477      0.231153      0.321870
Ti	      8.34848     31.19751     35.00719        -0.072151     -0.154763      0.268674
Ti	      4.12711     20.77839     20.69654        -0.311944      0.001523      0.374902
Ti	      2.14314     12.52782     14.47391        -0.462075     -0.093703     -0.357446
O	      2.08168     16.59240     16.59731         0.321235     -1.104606      1.063456
O	      4.08491     16.73799     18.64619        -1.147833      1.097699     -0.462829
O	      2.16772     18.67641     18.53529         1.213509     -1.120733      0.250734
O	      4.18917     18.85991     20.54433        -0.134267      0.468338     -0.716475
O	      6.40246     18.82033     22.72637         0.619614      0.827237     -0.083824
O	      4.33240     20.79711     22.59631         0.782817      0.209068     -0.620134
O	      6.28751     20.89772     24.67982         0.323410      1.109264     -1.029683
O	      4.28124     22.90682     24.87072         0.787921     -0.101059      0.464467
O	      6.22240     22.95196     26.77126        -0.893737      1.198607     -0.944765
O	      4.26884     24.91844     26.90343         1.057713     -0.927525      0.684596
O	      6.18313     25.02058     28.88633        -0.568390     -0.189008     -0.164253
O	      4.07201     12.39485     14.38573        -0.757670     -0.707015      0.219465
O	      2.09621     14.50643     14.51464         0.189940     -0.969398      0.995081
O	      4.09045     14.57805     16.52882        -0.115483      0.017243     -0.141231
