# total energy = -103.78962038 eV
 
CRYSTAL
PRIMVEC
4.067275 -0.000154 -0.000140 
-2.033609 4.048450 -6.330054 
2.033404 4.109193 2.150430 
PRIMCOORD
12 1
Ti	      4.06630      4.16013     -0.00553         0.003835      0.153896      2.929979
Ti	      2.03310      3.82123     -1.92508        -0.001976     -1.067688     -1.130786
Ti	     -0.00020      3.98518     -4.28422        -0.006438     -2.165385     -2.438889
Ti	      2.03179      6.06885     -4.27664         0.002462      2.021120      0.378727
O	      4.06681      4.09011     -2.04672        -0.001828     -0.558462      0.951155
O	      4.06713      2.26053      0.22238        -0.002555      1.483512      0.243864
O	      2.03311      6.11927     -2.25163        -0.001739      1.029375     -0.220374
O	      2.03282      4.18731     -0.00057         0.002932     -0.410072     -2.356176
O	      2.03308      4.02423     -4.11974        -0.001417      1.021474      1.188627
O	     -0.00098      5.97478     -4.11412         0.007964     -2.069698     -0.704875
O	      2.03321      2.02601     -2.14859         0.000105      1.178821      0.667526
O	      2.03282      8.07062     -4.10251        -0.001344     -0.616893      0.491223
