# total energy = -102.23368777 eV
 
CRYSTAL
PRIMVEC
-0.000039 2.091085 2.091120 
8.490314 -2.107897 2.107750 
0.010038 4.235327 -4.235329 
PRIMCOORD
16 1
Li	      0.28050      2.19912      1.98170         0.042787      0.001656     -0.002482
Li	      2.05039      2.26734     -0.17789         0.009697     -0.017924      0.018340
Li	      3.96628      2.12311     -2.12146        -0.013847      0.003561     -0.005186
Li	      2.03789      4.05318     -1.96369         0.001861      0.023878     -0.024637
Ti	      4.03278      2.08118      2.09847        -0.841353     -0.021043      0.022222
Ti	      6.51098      2.16007     -0.07081         0.430900      0.071387     -0.071357
Ni	      6.42851     -0.01034      2.09932        -0.063163     -0.037343      0.038145
Ni	      0.16201      4.11436      0.06610        -0.021621      0.062833     -0.063634
O	      4.38441      1.98333      0.10539         0.027874     -0.060185      0.060335
O	      4.39809      0.10307      1.98572        -0.072225      0.088705     -0.088974
O	      6.36104      2.18855      1.99151        -0.055534      0.099548     -0.099035
O	      6.29685      4.13199      0.04816        -0.001296     -0.157547      0.159365
O	      8.37480     -0.00244      2.09167         0.100956     -0.104607      0.104792
O	      2.10865      4.21254     -0.03208         0.166020     -0.005334      0.005140
O	      8.32134      2.08597      0.00295        -0.487556      0.064824     -0.064830
O	      2.27289      2.08567      2.09437         0.776502     -0.012409      0.011795
