# total energy = -139.28032827 eV
 
CRYSTAL
PRIMVEC
-0.000028 2.077185 2.077287 
4.221332 -0.035750 4.190288 
14.727541 14.618546 -0.078354 
PRIMCOORD
19 1
Ti	     16.67795     14.58582      2.03593         0.612301     -0.297458      0.290982
Ti	      4.37462      4.16468      4.14690        -0.616640      0.289767     -0.291019
Ti	      8.25446      6.20274      2.10602         0.630359     -0.284402      0.285944
Ti	     10.52246      8.33765      2.04939         0.001058      0.001521     -0.003272
Ti	     12.79393     12.54520      4.07110        -0.625683      0.284112     -0.284278
O	      2.16873      1.97390      2.18203         0.605357     -0.782191      0.779236
O	      4.19014      4.06455      2.16885         0.361618     -0.887615      0.891357
O	      6.44617      6.27205      2.03641        -0.070831     -0.184553      0.186524
O	      8.50581      8.27846      2.10783         0.865060     -1.223125      1.218711
O	     10.54752     10.34551      2.11803         0.956374     -1.077351      1.073972
O	     12.60279     12.43993      2.09936         0.440410     -1.136164      1.140258
O	     14.85961     14.62106      1.99939        -0.124557     -0.141863      0.147460
O	      4.15640      2.15553      4.07745        -0.605374      0.783381     -0.776972
O	      6.19306      4.12894      4.18276         0.121037      0.138178     -0.145471
O	      8.44569      6.30789      4.07794        -0.440807      1.148356     -1.144371
O	     10.49860      8.40567      4.05801        -0.957366      1.076806     -1.077764
O	     12.53994     10.47128      4.06850        -0.859576      1.220786     -1.215830
O	     14.60196     12.47630      4.14013         0.069772      0.182351     -0.186280
O	     16.86257     14.68414      4.01256        -0.362511      0.889465     -0.889190
