# total energy = -102.58468080 eV
 
CRYSTAL
PRIMVEC
2.100727 4.153661 2.097379 
6.275525 0.000023 -2.070754 
-2.100707 4.153640 -2.097378 
PRIMCOORD
12 1
Ti	      4.19777      2.09186     -2.09465        -0.321642     -0.414172      0.340746
Ti	      4.19772      6.21359     -2.09466        -0.318231      0.416546      0.345233
Ti	      0.02394      4.15275     -0.04131         4.595774      0.001196     -4.234515
Ti	      2.13033      4.15297     -2.11230        -4.849142     -0.003041      4.481474
O	      4.23408      6.22557     -0.04237         2.295387      1.809724     -2.192333
O	      4.23416      2.08021     -0.04226         2.294314     -1.811285     -2.192775
O	      6.23244      2.12681     -2.01767        -1.921224      0.999211      1.803149
O	      6.23259      6.17894     -2.01784        -1.923481     -1.001214      1.805824
O	      0.15539      4.15290     -1.98637         1.474460      0.000386      1.843374
O	      1.99374      4.15281     -0.16060        -1.768695     -0.000243     -1.568262
O	      4.20417      4.15270     -2.03264        -0.156785      0.001719     -0.566570
O	      6.23164      4.15280      0.00050         0.599264      0.001172      0.134655
