# total energy = -105.59978948 eV
 
CRYSTAL
PRIMVEC
1.991515 4.344156 1.992321 
6.100371 -0.078894 -1.957441 
-2.152529 4.502598 -2.153932 
PRIMCOORD
12 1
Ti	      5.93232      4.34000     -1.94704        -0.328518      0.046649      0.303836
Ti	      4.02797      6.59747     -2.19584         0.338088     -0.047910     -0.314792
Ti	      1.89377      6.59523     -0.06129        -0.239179     -0.015947      0.208418
Ti	      1.96673      4.42108     -2.12475         0.229909      0.015438     -0.198010
O	      3.88591      6.76572     -0.17597        -0.798078      0.801725     -0.866431
O	     -0.02621      4.24978     -2.00917         0.807438     -0.789377      0.859587
O	      2.01088      6.42281     -2.05261         0.850068     -0.783146      0.801379
O	      1.84883      4.59408     -0.13257        -0.845212      0.774389     -0.810111
O	      5.96831      2.25551     -2.00033         0.486763      1.543964      0.490050
O	      3.97680      4.50945     -2.15903         0.450750      1.503466      0.486815
O	      5.98392      6.42798     -1.98400        -0.465402     -1.502187     -0.486198
O	      6.14450      4.17939      0.01090        -0.486629     -1.547064     -0.474544
