# total energy = -184.59143427 eV
 
CRYSTAL
PRIMVEC
-0.167422 16.335663 16.476467 
4.233366 2.000840 6.177440 
4.234439 2.000612 2.058531 
PRIMCOORD
23 1
Ti	      4.23612      4.05728      8.23751        -2.047994      0.478920     -0.008550
Ti	      6.32393      3.98692      6.17616         2.050394     -0.019027      0.007584
Ti	      4.14628      8.07212      8.23660         3.949891     -5.002112      0.014767
Ti	      4.17652     10.22605     14.41715        -3.936571      4.988537     -0.013677
Ti	      2.04475      8.14826     10.29763        -0.000273     -0.008352      0.000218
Ti	      4.08720     14.24056     14.41650         2.046649     -0.474598      0.007177
Ti	      1.99990     14.31053     16.47746        -2.053090      0.031655     -0.005499
O	      2.06647      1.97629      2.05859        -1.682075      0.049451      0.008581
O	      4.10088      2.09892      4.11842        -1.115375      1.097511      0.002993
O	      2.20678      3.94287      4.11826         1.082416     -1.136704     -0.000274
O	      4.25452      4.06516      6.17785         1.666730     -0.147584     -0.008773
O	      6.13425      8.17120     12.35569        -2.766690      2.338892      0.001037
O	      4.16999      6.05568      8.23686        -0.071069      1.702810      0.001270
O	      6.27825     10.14933     14.41577         0.002570     -0.005015      0.000251
O	      4.16217      8.08083     10.29619        -1.988525      1.647983      0.011513
O	      2.18856     10.12580     10.29807         2.772160     -2.339050     -0.001827
O	      4.16151     10.21686     12.35803         1.986309     -1.655494     -0.013901
O	      6.11663     14.35540     18.53531        -1.079763      1.130011      0.000434
O	      4.15340     12.24247     14.41703         0.071024     -1.710482     -0.000468
O	      6.25749     16.32148     20.59492         1.678949     -0.043227     -0.007004
O	      4.06909     14.23285     16.47603        -1.667736      0.148784      0.005584
O	      6.19430     18.31662     22.65389        -0.001888      0.012563      0.000224
O	      4.22325     16.19875     18.53511         1.103957     -1.085473     -0.001661
