# total energy = -77.20536129 eV
 
CRYSTAL
PRIMVEC
-0.000200 0.000261 -4.005951 
-0.000081 6.448434 -2.003400 
4.021840 0.000012 0.000206 
PRIMCOORD
9 1
Ti	      2.01302      0.00225     -2.00229         0.000196     -0.363368      0.001408
Ti	      2.01378      4.46428     -2.00271         0.003065     -1.782788     -0.000819
Ti	      0.00253      2.03161     -2.00365        -0.001802      2.649717     -0.027407
O	      2.01348      2.13671     -2.00256        -0.000756     -1.355323      0.005181
O	      2.01338      6.41768     -2.00283         0.000022     -2.091512      0.001751
O	      2.01319      4.39097     -4.00571         0.000200      2.769179      0.001421
O	      0.00253      4.15782     -2.00285        -0.002904     -0.549385      0.001962
O	      0.00233      0.02531     -2.00237         0.001827      1.623009     -0.002089
O	      0.00251      2.21618     -4.00511         0.000151     -0.899530      0.018593
