# total energy = -75.40102517 eV
 
CRYSTAL
PRIMVEC
2.100445 4.333040 2.100441 
4.244259 -2.190587 -2.095044 
2.095051 2.190622 -4.244163 
PRIMCOORD
9 1
Ti	      4.30884      2.23102     -2.14223        -0.206413     -0.421892     -0.860433
Ti	      4.35541      0.00031     -4.35273         0.702405      0.528138     -0.050425
Ti	      6.56606      2.23130     -4.39973        -0.477029     -0.471340     -0.454874
O	      4.36196     -0.00319     -2.18412         0.002139      3.099815      0.904361
O	      6.48927      2.23559     -2.21929        -2.806138      2.775956     -1.862753
O	      4.38573      2.22798     -4.32247         2.046295     -2.358520      3.053737
O	      4.35468      2.21033      0.01366         0.090581     -2.486561     -0.696647
O	      2.15254      2.25311     -2.18846         1.074763      2.468827     -0.070865
O	      4.35043      4.46675     -2.19589        -0.426604     -3.134424      0.037898
