# total energy = -103.83114424 eV
 
CRYSTAL
PRIMVEC
-2.090348 4.156517 -2.095251 
2.075319 4.141743 2.081927 
6.287670 -0.008223 -2.127953 
PRIMCOORD
16 1
Li	      2.17442      4.14517      1.99051         0.029293     -0.006578     -0.045512
Li	      2.09754      2.06527     -0.02057        -0.005342      0.012982      0.010216
Li	      4.11685      4.14558      0.03598        -0.031506     -0.005766      0.027889
Li	      2.03445      6.22404      0.02214        -0.001629     -0.010255      0.006133
Ti	      1.97914      4.14792     -1.99065        -0.236142     -0.002139      0.239793
Ti	      4.24507      6.22448     -2.19105         0.113953     -0.004597     -0.112986
Ni	      4.19407      2.06665     -2.12647         0.006505      0.011158      0.006677
Ni	      6.27275      4.13981     -2.13025         0.022456     -0.004435     -0.006396
O	      2.18802      6.10738     -2.16315         0.054552     -0.101894      0.123294
O	      2.07081      4.13764     -0.12079         0.062141      0.003303     -0.256919
O	      4.21513      6.32948     -0.13367        -0.126031      0.113261     -0.034599
O	      4.13996      4.22855     -2.10339        -0.084896      0.130530     -0.004124
O	      6.17437      6.18185     -2.10108        -0.181660      0.127839     -0.115243
O	      0.10543      4.15785     -2.08532         0.254336     -0.004935     -0.092532
O	      6.24704      4.05406      0.00666         0.005270     -0.151637      0.093239
O	      6.24793      2.09624     -2.02553         0.118701     -0.106839      0.161071
