# total energy = -101.09132606 eV
 
CRYSTAL
PRIMVEC
1.955501 3.969681 2.000759 
3.972488 -2.002239 -2.026684 
0.003011 3.977318 -4.018676 
PRIMCOORD
12 1
Ti	      3.78410      3.80609     -0.01923         1.794745     -0.842575      3.484467
Ti	      1.87594      3.80442     -1.95920        -5.440587     -2.514912      3.573014
Ti	      3.78607      5.71494     -1.94819         0.955853      3.671193     -0.068549
Ti	      3.81881      3.81472     -3.85737         2.714227      0.677386     -7.435245
O	      1.89278      1.90299     -1.96395        -0.603516     -0.737484     -2.207990
O	      3.82349      3.76550     -1.92980         0.469426      1.390999     -0.386702
O	      1.87136      3.85344     -3.88714         0.345189     -1.555761     -1.272926
O	      3.79930      1.89807      0.00449         0.461401     -0.969321      2.897200
O	      3.74879     -0.01291     -1.85411        -1.153004     -0.590242      2.725743
O	      1.94337      3.81420     -0.10483         0.614005      0.276910     -0.674824
O	      3.79259      1.90953     -3.86670         0.091101      0.857131     -0.578786
O	      1.90241      5.70972     -1.95007        -0.248839      0.336675     -0.055402
