# total energy = -100.77141548 eV
 
CRYSTAL
PRIMVEC
2.098846 4.289279 2.129109 
4.252933 -2.171762 -2.130092 
-0.016768 4.287345 -4.238066 
PRIMCOORD
12 1
Ti	      4.31920      2.18370     -2.15631         1.244392     -0.208804      1.909013
Ti	      0.04381      2.21376     -2.17691         2.018008     -2.787416      0.790616
Ti	      2.16919      2.27257     -4.29220        -1.763771      3.357590     -0.949708
Ti	      4.35244      4.36653     -4.36757        -1.002005      0.632244     -2.017248
O	      2.18002      2.17272     -2.15688         0.213082      0.242869     -2.892346
O	      4.31014      4.37734     -2.12979         1.944804     -0.551782     -2.136886
O	      2.25029      4.25558     -4.34150         2.955557     -3.592891      0.275763
O	      4.31813      2.13456      0.00984        -0.206198     -2.615090     -0.751707
O	      4.37024      0.02051     -2.18944        -0.156299      3.295275      0.472376
O	      2.06184      4.51989      0.00085        -3.128334      2.611992     -0.382214
O	      4.36099      2.17254     -4.39364        -2.265139      0.201345      2.954402
O	      2.13192      6.60282     -2.18335         0.145902     -0.585333      2.727939
