# total energy = -101.94789710 eV
 
CRYSTAL
PRIMVEC
1.986056 4.031707 2.032021 
4.034558 -2.033524 -2.058351 
0.003058 4.039464 -4.081468 
PRIMCOORD
12 1
Ti	      3.90328      3.92596     -0.01983         0.921507     -0.611433      1.928195
Ti	      1.93502      3.92424     -2.02090        -4.040505     -1.920051      3.940447
Ti	      3.90531      5.89493     -2.00955         0.460409      2.066488     -0.000279
Ti	      3.93908      3.93487     -3.97886         2.484839      0.792940     -6.099352
O	      1.95239      1.96292     -2.02581        -0.307755     -0.130148     -2.414291
O	      3.94391      3.88410     -1.99058        -0.537679      1.902877     -0.326529
O	      1.93029      3.97480     -4.00956         1.001162     -1.867654     -0.500776
O	      3.91896      1.95785      0.00463         0.235033     -0.619525      2.806518
O	      3.86686     -0.01332     -1.91251        -1.688155     -0.338891      2.909095
O	      2.00458      3.93433     -0.10813         1.503339      0.109513     -1.873561
O	      3.91204      1.96967     -3.98848        -0.113927      1.478282     -0.301424
O	      1.96232      5.88954     -2.01149         0.081732     -0.862398     -0.068044
