# total energy = -97.65993730 eV
 
CRYSTAL
PRIMVEC
2.128645 4.321163 2.177910 
4.324219 -2.179521 -2.206130 
0.003277 4.329477 -4.374497 
PRIMCOORD
12 1
Ti	      2.35523      0.18876     -2.20069        -0.790096      1.200138     -2.049724
Ti	      2.22285      4.50795     -2.32149        -1.454745     -0.495487      4.562264
Ti	      2.35755      2.45061     -4.48636        -0.308806     -2.427925     -0.333511
Ti	      4.52499      4.52016     -4.57068         3.309858      1.824884     -2.414521
O	      2.24280      2.25489     -2.32714         0.662098      0.389868     -2.852154
O	      4.53054      4.46183     -2.28666        -2.825997      2.255019     -0.207305
O	      2.21742      4.56603     -4.60596         2.349473     -2.746873      0.674470
O	      4.50188      2.24907      0.00532        -0.567858     -0.279503      2.523209
O	      4.44203     -0.01531     -2.19698        -3.132644      1.013313      3.735684
O	      2.30275      4.51954     -0.12422         2.848072     -0.347239     -4.134859
O	      4.49393      2.26264     -4.58175         0.209105      2.804054      0.715625
O	      2.25421      6.76558     -2.31069        -0.298460     -3.190247     -0.219177
