# total energy = -78.10020963 eV
 
CRYSTAL
PRIMVEC
2.008678 4.143732 2.008674 
4.058830 -2.094881 -2.003513 
2.003520 2.094915 -4.058738 
PRIMCOORD
9 1
Ti	      3.94057      2.04033     -1.95914        -0.526251      0.326544      1.141737
Ti	      3.98316      0.00028     -3.98071        -0.372190     -0.532163     -0.142664
Ti	      6.00486      2.04059     -4.02369         1.105562      0.303990     -0.450723
O	      3.98914     -0.00292     -1.99744        -0.130749      1.674880     -0.197583
O	      5.93463      2.04451     -2.02960        -0.894091      2.226685     -1.544919
O	      4.01089      2.03755     -3.95303         1.383644     -2.299283      0.750492
O	      3.98248      2.02142      0.01250         0.114596     -2.219027      0.476141
O	      1.96856      2.06054     -2.00141        -0.698370      2.210276     -0.141078
O	      3.97860      4.08497     -2.00821         0.017850     -1.691903      0.108595
