# total energy = -74.29117378 eV
 
CRYSTAL
PRIMVEC
4.240449 -0.000636 -0.001131 
0.000483 4.285188 -4.283444 
-2.121365 4.333045 2.189765 
PRIMCOORD
9 1
Ti	      0.00152      4.47501      0.03596        -0.669489     -0.766519      2.604589
Ti	      2.19754      4.44069     -2.22322         0.053994     -1.369012     -0.697818
Ti	      0.00178      6.67968     -2.20089        -0.609062      1.036509     -2.475410
O	      0.00164      2.32904      0.09036         0.238384      3.703417      3.403324
O	      2.19563      4.49505      0.01899         0.378346      0.046459     -3.101517
O	      0.00296      4.40717     -2.24313        -0.152116      2.357413      2.465072
O	      2.19610      6.66191     -2.17864         0.249663     -2.955347      0.277149
O	      2.12288      2.35205     -2.17128         0.283384      1.098658     -2.493809
O	      2.12258      0.28435     -0.07660         0.226895     -3.151578      0.018421
