# total energy = -101.14379912 eV
 
CRYSTAL
PRIMVEC
2.088608 4.268355 2.118723 
4.232187 -2.161168 -2.119701 
-0.016687 4.266431 -4.217392 
PRIMCOORD
12 1
Ti	      4.27717      2.16245     -2.13533         1.336840     -0.318607      2.064414
Ti	      0.04338      2.19222     -2.15572         2.031015     -2.958834      0.880469
Ti	      2.13789      2.22963     -4.26076        -1.806721      3.402793     -1.002274
Ti	      4.31008      4.32403     -4.32507        -1.184104      0.660575     -2.133241
O	      2.15880      2.15157     -2.13590         0.067755      0.203855     -2.828972
O	      4.26820      4.33473     -2.10906         1.909968     -0.442950     -2.141351
O	      2.22839      4.21417     -4.29924         2.928719     -3.466562      0.224351
O	      4.27610      2.11379      0.00974        -0.162683     -2.593467     -0.647066
O	      4.32770      0.02032     -2.16813        -0.128651      3.161852      0.386915
O	      2.04177      4.47590      0.00085        -3.056325      2.673261     -0.312103
O	      4.31854      2.15140     -4.35088        -2.183242      0.158601      2.804837
O	      2.11117      6.53856     -2.16210         0.247428     -0.480518      2.704020
