# total energy = -92.01384570 eV
 
CRYSTAL
PRIMVEC
0.000306 2.078021 2.076904 
6.008918 6.286117 -4.205151 
-4.030369 2.113146 -2.112677 
PRIMCOORD
16 1
Li	     -2.06825      4.12586     -2.05087        -0.001747     -0.035602      0.035640
Li	      2.14083      6.26369     -4.18919         0.015925      0.026338     -0.026140
Li	      3.97140      8.35412     -4.19830        -0.028701     -0.001160      0.003501
Li	      4.02827      6.42403     -2.26758         0.011490      0.032635     -0.031298
Mn	      1.98760      8.38326     -6.30329        -0.013083     -0.031947      0.027802
Mn	     -0.03734      6.28164     -2.12744         0.018144      0.009369     -0.010774
Ni	     -0.09834      4.12154      0.03193         0.003825     -0.014734      0.009685
Ni	      2.01632      4.21153     -2.13434         0.039779      0.031934     -0.033055
O	      4.14605      6.27109     -4.19198         0.021313      0.012323     -0.011120
O	      0.00506      6.13846     -4.06240         0.108613     -0.061988      0.062507
O	      1.99127      8.53024     -4.37207        -0.001129      0.013765     -0.015134
O	     -2.07561      4.20145     -0.04971        -0.121827      0.018015     -0.011267
O	     -0.05181      4.25730     -2.18095        -0.103320      0.109558     -0.100802
O	      1.86797      6.26074     -2.10715        -0.058962      0.091485     -0.089730
O	      0.00364      2.03687      0.03911         0.007716     -0.093335      0.087327
O	      2.02574      4.23161     -0.07615         0.101963     -0.106656      0.102858
