# total energy = -101.02696781 eV
 
CRYSTAL
PRIMVEC
3.973832 -0.000783 -0.000735 
1.987249 3.954046 -6.154947 
-1.988086 4.022396 2.096656 
PRIMCOORD
12 1
Ti	      0.00070      3.89139      0.02809        -0.412548     -3.349920      7.164092
Ti	      1.92952      3.84487     -1.99678         0.052288     -4.727559      1.255966
Ti	      0.00012      5.82822     -1.92213        -1.041155      4.054860     -0.265547
Ti	      1.92881      5.78264     -3.94777         0.192806      4.117879     -7.325205
O	      3.85643      3.81990     -1.97991         0.944807      1.511149      0.205047
O	      0.00146      2.02543      0.11769        -0.354684      0.318180      1.626071
O	      1.92791      5.85237     -1.94025         0.052206     -0.378701     -0.798594
O	      1.92815      3.91337     -0.00795         0.273025      0.397625     -2.637658
O	      1.92873      3.86829     -3.96668        -0.132520     -1.561722      1.338358
O	      3.85611      5.75971     -3.91215         0.872568      0.199299      2.495546
O	      1.92943      1.90338     -1.98627        -0.076277      0.950875     -2.748492
O	      0.00089      3.81268      1.93353        -0.370517     -1.531965     -0.309584
