# total energy = -99.80789245 eV
 
CRYSTAL
PRIMVEC
4.241647 -0.001078 -0.000973 
2.121227 4.211822 -6.435060 
-2.122396 4.255352 2.173521 
PRIMCOORD
12 1
Ti	     -0.00200      4.40759      0.06709        -0.271326      1.496516      0.442046
Ti	      2.18270      4.33702     -2.22195        -0.405787     -2.178897      2.215399
Ti	      4.36965      4.29572     -4.46631         0.022106     -0.983671     -1.117212
Ti	      2.18194      6.53060     -4.39860        -0.426365      0.383260     -2.857740
O	      0.12595      4.34571     -2.19784        -0.047953      0.020275     -0.430597
O	     -0.00214      2.29933      0.09684         0.424795      2.769948      3.131229
O	      2.18342      6.48538     -2.19762         0.214555      0.488418     -2.016511
O	      2.18211      4.39650      0.01795         0.596329     -0.045298     -2.933539
O	      2.18521      4.28064     -4.48001        -0.146777      2.001047      2.715565
O	      4.36689      6.51050     -4.36746        -0.061659     -3.449219      0.267258
O	      2.18357      2.18167     -2.20912        -0.002164      0.626812      0.088682
O	      2.18386      0.01861     -0.01849         0.104246     -1.129191      0.495422
