# total energy = -101.45125282 eV
 
CRYSTAL
PRIMVEC
4.035283 -0.000795 -0.000746 
2.017980 4.015191 -6.250127 
-2.018829 4.084598 2.129078 
PRIMCOORD
12 1
Ti	      0.00072      4.01267      0.02896        -0.093030     -3.303350      6.459811
Ti	      1.98965      3.96471     -2.05901         0.089062     -3.944357      1.037369
Ti	      0.00013      6.00987     -1.98203        -0.385401      3.588507     -0.655993
Ti	      1.98893      5.96286     -4.07081         0.154904      3.507688     -6.454383
O	      3.97662      3.93895     -2.04162         0.364929      1.843034      0.796098
O	      0.00150      2.08855      0.12136        -0.183035      1.336037      1.901897
O	      1.98800      6.03477     -2.00072        -0.073168     -1.322740     -1.068478
O	      1.98825      4.03534     -0.00820         0.028400      0.255665     -3.115707
O	      1.98884      3.98885     -4.09031        -0.053770     -1.537867      2.279821
O	      3.97630      5.93922     -4.03408         0.365382      0.017699      3.036272
O	      1.98956      1.96270     -2.04817        -0.029186      1.403563     -2.869675
O	      0.00092      3.93150      1.99379        -0.185087     -1.843878     -1.347032
