# total energy = -102.10954407 eV
 
CRYSTAL
PRIMVEC
2.076879 4.101199 2.077114 
4.105362 -4.074751 -0.004379 
4.109642 -0.000070 -4.109930 
PRIMCOORD
12 1
Ti	      8.16377      0.02727      0.00432        -2.069755      0.049375      3.029695
Ti	      8.15708     -2.00255     -2.04407         2.528617     -0.549110     -2.347931
Ti	      4.09637      0.02355      0.02469         0.305539     -1.862643      0.844593
Ti	      6.09272      0.00519     -2.04750        -1.167051      2.129104     -1.199349
O	      4.06597     -1.93234      0.06630        -0.021408      2.805973      2.523989
O	      6.13169      0.02074     -0.01061         0.838740     -0.040335     -1.910337
O	      2.05987      0.00787     -0.01416         1.862828      0.034980     -0.616850
O	      4.07393      2.03505     -0.00344        -0.012390      1.085592     -1.666522
O	      6.12107     -2.00616     -2.02508         1.785031     -0.961759     -0.213620
O	      8.17596      0.06045     -2.01143        -1.399520     -1.502038      0.097329
O	      4.05982     -0.03126     -2.05852        -0.321704      1.596104      1.564152
O	      6.05161      1.96129     -2.01702        -2.328927     -2.785243     -0.105149
