# total energy = -101.76669288 eV
 
CRYSTAL
PRIMVEC
2.058444 4.078954 2.058663 
2.058076 0.000033 -6.175656 
-2.058403 4.078940 -2.058695 
PRIMCOORD
12 1
Ti	      2.02763      6.02674     -4.05614        -0.272906      0.892220      0.175980
Ti	      2.00904      4.01718     -6.06680         4.964250     -0.006932     -5.815787
Ti	      2.04749      4.01713     -2.04641        -5.137126     -0.005850      6.009461
Ti	      2.02761      2.00562     -4.05611        -0.274656     -0.876024      0.174722
O	      0.03236      5.99015     -4.08945         1.893378      1.949287     -1.941873
O	      0.09591      4.01731     -1.93236         1.861763     -0.002943      1.787812
O	      0.03211      2.04394     -4.08886         1.905342     -1.950806     -1.951549
O	      1.99540      1.97299     -6.05086        -1.655689      1.443518      1.765081
O	      1.93291      4.01725     -0.09716        -1.714555     -0.001495     -1.438762
O	      0.00069      4.01694     -6.08507        -0.209282      0.002897     -0.363508
O	      1.99566      6.06107     -6.05138        -1.659283     -1.445216      1.771910
O	      2.02856      4.01682     -4.05689         0.298764      0.001346     -0.173486
