# total energy = -102.85525752 eV
 
CRYSTAL
PRIMVEC
1.960965 3.999400 1.961105 
1.944562 0.024658 -5.916626 
-2.010830 4.048830 -2.010873 
PRIMCOORD
12 1
Ti	      1.78980      3.86270     -5.62630         1.073702      1.613791     -3.551306
Ti	     -0.08524      1.93370     -1.83106        -2.123504     -0.892559     -0.129501
Ti	      1.91965      3.83984     -1.96640         0.120484      2.122129      4.268138
Ti	      1.90232      1.93531     -3.82088         1.070171     -3.146245     -1.065277
O	      1.80659      1.95137     -1.92370         1.722843     -0.079331     -1.045902
O	      0.02828      3.82189     -1.87261        -0.431051     -0.529808      0.739249
O	      0.00803      1.91156     -3.72286         1.389524     -1.559808     -1.912804
O	     -0.00637      1.89578     -0.01625        -0.505882      0.904603      3.464173
O	      1.82694      3.86224     -0.07372        -0.606904      1.346360      0.929525
O	     -0.05705      3.85480     -5.67935        -0.514774      2.116577     -1.094171
O	     -0.02854      5.78574     -0.03828        -2.061178     -0.895680      0.950211
O	      1.84105      3.87830     -3.78049         0.866570     -1.000030     -1.552335
