# total energy = -103.49554557 eV
 
CRYSTAL
PRIMVEC
4.096493 -0.000037 -0.000013 
0.000023 4.245946 -4.154709 
0.000092 6.364938 2.073435 
PRIMCOORD
16 1
Li	      4.09639      0.08996     -0.05142         0.000492      0.003023      0.026239
Li	      2.04855      2.15058     -0.05346        -0.000086     -0.008686     -0.013591
Li	      0.00007      4.20301     -0.01680         0.000404      0.006090     -0.012003
Li	      2.04862      4.13982     -1.98441        -0.000238      0.005536     -0.000361
Ti	      4.09650      6.17791     -2.16590         0.000308     -0.384791     -0.211041
Ti	      2.04758      8.64792     -2.15148         0.001552      0.397158     -0.257839
Ni	      2.04862      6.37067      0.01101        -0.000207     -0.022212      0.052113
Ni	      0.00032      2.17198     -1.99079         0.000013      0.090411      0.092306
O	      0.00029      2.10702      0.10737        -0.000478     -0.032203      0.294190
O	      2.04860      4.27102      0.13816        -0.000574     -0.068357      0.269744
O	      0.00028      4.34134     -2.04640         0.000236      0.423168     -0.027153
O	      2.04865      6.43184     -2.08129        -0.000275      0.016793     -0.108468
O	      0.00039      6.46219     -0.15109        -0.000574     -0.104170     -0.051303
O	      2.04875      8.46448     -0.09375        -0.000903      0.089854     -0.057031
O	      0.00052      8.42037     -2.04977         0.000526     -0.011525     -0.089974
O	      2.04849     10.48288     -2.09083        -0.000196     -0.400090      0.094171
