# total energy = -99.17512466 eV
 
CRYSTAL
PRIMVEC
3.948949 0.000060 0.000053 
0.000006 3.966352 -3.966794 
0.000114 5.996510 2.030397 
PRIMCOORD
12 1
Ti	      0.00208      3.81200      0.02100        -1.250052     -2.267748      2.334015
Ti	      1.88751      3.78906     -1.89539         1.861097     -5.424896     -5.578577
Ti	      0.00173      5.70567     -1.87266        -1.543567      0.788664     -1.687534
Ti	      1.88796      7.62451     -1.84813         1.171093      6.121751      4.495623
O	      0.00173      1.97436      0.07796        -0.484477      0.197357      2.072053
O	      1.88774      3.81290      0.02221         1.347716      0.218655      2.353734
O	      0.00190      3.78384     -1.90090        -1.643456      0.555886      0.263842
O	      1.88747      5.70649     -1.87192         1.388847      1.559145     -0.205654
O	      0.00167      5.65002     -0.03459        -0.524244      0.441209     -0.923629
O	      1.88749      1.95902     -1.95793         0.371212     -1.194594     -1.847482
O	      0.00245      7.62795     -1.84493        -1.031756      0.699718     -1.089507
O	      1.88737      3.72692     -3.72557         0.337586     -1.695148     -0.186885
