# total energy = -101.23607394 eV
 
CRYSTAL
PRIMVEC
4.138695 -0.001052 -0.000950 
2.069741 4.109593 -6.278869 
-2.070881 4.152067 2.120765 
PRIMCOORD
12 1
Ti	     -0.00190      4.19622      0.06387        -0.007383      0.707392      1.352143
Ti	      2.07803      4.12904     -2.11540        -0.017274     -3.256852      2.902504
Ti	      4.16011      4.08972     -4.25213        -0.059895     -0.781625     -1.727553
Ti	      2.07731      6.21743     -4.18768        -0.034885      1.941397     -3.441338
O	      0.01946      4.13734     -2.09243        -0.055589      0.075423     -0.698018
O	     -0.00203      2.18906      0.09219         0.066156      2.287756      3.226926
O	      2.07872      6.17438     -2.09224         0.037484      1.000065     -2.064318
O	      2.07746      4.18566      0.01708         0.071516      0.129601     -2.773943
O	      2.08042      4.07537     -4.26517        -0.006569      1.911051      2.008900
O	      4.15748      6.19829     -4.15802        -0.015964     -3.125281      0.084542
O	      2.07886      2.07705     -2.10318         0.005138      1.275377     -0.180216
O	      2.07913      0.01772     -0.01760         0.017266     -2.164302      1.310373
