# total energy = -171.98586581 eV
 
CRYSTAL
PRIMVEC
0.028901 26.706355 26.973731 
2.100903 2.053698 4.152648 
2.101181 6.163905 4.151122 
PRIMCOORD
20 1
Ti	      0.03016     26.70587     26.97343         0.001158      0.001475      0.008235
Ti	      2.11766      8.21432      6.25210        -4.840691      0.047241      0.948165
Ti	      2.10190     14.38020     12.48416         3.052447      0.000615     -1.876091
Ti	      2.10225     14.37829     16.58849         0.525454      0.003456     -2.454232
Ti	      2.13120     20.54376     18.68957        -0.533854     -0.001266      2.461979
Ti	      2.13117     20.54257     22.79525        -3.041865     -0.001059      1.865070
Ti	      2.11545     26.70880     29.02599         4.825260     -0.046510     -0.944687
O	      2.15479     28.76293     28.99749        -1.912239     -0.021038      1.691900
O	      2.13136     30.81481     31.12605        -0.001552     -0.000527     -0.004034
O	      2.07797      6.16027      6.28032         1.918505      0.020302     -1.692789
O	      2.12735      8.21722      8.29630         0.987747     -0.008737     -2.096805
O	      2.18947     10.27001     10.49625         3.037051     -0.005226      2.371398
O	      2.10586     12.32513     12.50709        -2.661689     -0.007330      0.106275
O	      2.11859     14.37854     14.52432        -2.630469      0.006209      0.749870
O	      2.09100     16.43364     16.56470         1.715815     -0.000838      1.691354
O	      2.14270     18.48837     18.71373        -1.717905      0.003049     -1.690850
O	      2.11494     20.54355     20.75481         2.632581     -0.005240     -0.757023
O	      2.12714     22.59737     22.77175         2.665327      0.004537     -0.106721
O	      2.04371     24.65282     24.78172        -3.034618      0.005250     -2.366522
O	      2.10565     26.70627     26.98183        -0.986463      0.005634      2.095509
