# total energy = -109.48553155 eV
 
CRYSTAL
PRIMVEC
-0.024251 4.116735 4.118594 
10.590523 -0.026300 10.262159 
4.236263 2.046303 2.047115 
PRIMCOORD
14 1
Ti	     10.56783      4.12774     14.34240         0.036644      0.465950     -0.490117
Ti	      2.11242      2.10241      4.05801        -0.039011      0.290582     -0.289313
Ti	      4.22609      2.04794      6.15961         0.020287     -0.151352      0.151819
Ti	     10.58152      3.99028     10.36302         0.017816     -0.498549      0.489224
O	      2.22504      2.02591      2.11437         1.475492      0.261670      1.274842
O	      4.17393      2.05628      4.09408        -1.268757      0.051600     -0.055488
O	      6.27121      2.07305      6.22558        -1.454776      1.222204      0.897325
O	      8.33006      2.12516      8.19178        -0.880869      1.111992      0.248225
O	     10.61469      2.02542     10.26809        -0.296857     -0.329165      0.074005
O	      1.99351      4.04373      4.13473        -1.471860     -1.236406     -0.259031
O	      4.28370      4.11341      6.15085         1.230195      0.046681     -0.050565
O	      6.41782      4.03102      8.18482         1.493539     -0.907142     -1.242375
O	      8.59605      4.10861     10.17618         0.851128     -0.248779     -1.090222
O	     10.54735      4.08345     12.32557         0.287029     -0.079288      0.341671
