# total energy = -109.48712888 eV
 
CRYSTAL
PRIMVEC
0.024193 4.118080 4.116110 
10.664310 2.092555 12.375251 
4.260765 2.071004 2.070265 
PRIMCOORD
14 1
Ti	      2.15229      4.12828      6.17492         0.037248     -0.159115      0.139523
Ti	      8.54316      4.18440     12.32769         0.046942      0.493315     -0.463760
Ti	     10.68161      4.20358     14.37816        -0.059662      0.293339     -0.287307
Ti	      8.53239      4.04525      8.35019         0.022062     -0.485985      0.503365
O	     12.74126      4.16956     14.42554        -1.278711      0.047348     -0.048483
O	      4.34411      2.10324      4.19197         1.502745      1.250726      0.909904
O	      6.25746      2.09755      6.09829        -0.886955     -0.249582     -1.109927
O	      8.52330      6.20078     12.37310         0.287873     -0.343784      0.079347
O	     10.79187      6.14906     14.45626         1.476265     -1.274234     -0.263471
O	     12.87554      6.23113     16.48607         1.218324      0.046448     -0.048556
O	      4.19827      4.06354      6.15006        -1.453177     -0.905220     -1.215976
O	      6.54760      4.23030      8.23209         0.848443      1.097971      0.243517
O	      8.56657      4.14001     10.31491        -0.299073     -0.071701      0.328004
O	     10.55916      4.12901     12.43938        -1.462324      0.260474      1.233820
