# total energy = -100.95187837 eV
 
CRYSTAL
PRIMVEC
-0.000118 0.017857 -4.129489 
-2.032524 8.703233 -2.102616 
4.064452 0.000077 -0.000036 
PRIMCOORD
16 1
Li	     -0.00169      0.34636     -4.12896        -0.000200      0.009189     -0.001809
Li	      2.03036      2.16578     -4.11191         0.000919      0.000145      0.004463
Li	     -0.00047      4.00129     -4.10030         0.000738     -0.014952      0.014182
Li	     -0.00114      1.98544     -2.06734        -0.000586     -0.014480      0.008436
Ti	      2.03285      4.15953     -1.95049        -0.004663     -0.664136      0.099043
Ti	     -0.00151      6.62919     -2.17962         0.000692      0.376984     -0.053753
Ni	      2.03074      6.64811     -4.20060         0.001420     -0.065260     -0.004633
Ni	      2.03089      0.18236     -2.06405        -0.002835      0.139988      0.004661
O	      2.03094      2.37169     -2.05952         0.001708      0.605834      0.030631
O	     -0.00162      8.46248     -2.08861         0.000710     -0.434803     -0.031479
O	     -0.00145      4.55920     -2.08997        -0.002066      0.052524      0.001508
O	      2.03084      6.37046     -2.13532        -0.002949     -0.005579     -0.007279
O	     -0.00176      2.17718     -4.12773         0.002223      0.009491     -0.002337
O	      2.03096      4.48260     -4.20906         0.002644     -0.060349     -0.129534
O	      2.03055      8.62855     -4.16775         0.003349      0.112942      0.004963
O	     -0.00144      6.63306     -4.16942        -0.001103     -0.047539      0.062937
