# total energy = -71.52718962 eV
 
CRYSTAL
PRIMVEC
0.000033 2.164335 2.163776 
4.038583 -0.000019 0.000063 
0.000104 6.855162 -6.853930 
PRIMCOORD
9 1
Ti	      2.01778      4.41658     -2.40888        -0.005972     -3.442094      2.674010
Ti	      4.03669      4.67908     -4.46192        -0.004167     -0.440150     -0.444465
Ti	      2.01777      6.73275     -4.72151        -0.005698      2.680199     -3.439881
O	      4.03662      4.71965     -2.39397         0.001710      0.735643     -0.959085
O	      2.01704      6.67405     -2.46654         0.006502      0.532883      0.531615
O	      4.03659      2.22112     -0.06600         0.001133     -0.005694     -0.002113
O	      2.01742      4.72439     -0.41885         0.002226      2.469957     -1.625094
O	      4.03659      6.74695     -4.42201         0.002954     -0.961929      0.744465
O	      2.01748      8.72162     -4.41429         0.001312     -1.568814      2.520548
