# total energy = -99.21261326 eV
 
CRYSTAL
PRIMVEC
4.236378 -0.015140 4.290969 
-0.015464 4.235907 -4.290651 
-0.015681 4.236774 4.291492 
PRIMCOORD
12 1
Ti	     -0.00739      2.27625     -2.09521        -0.027562      0.864858     -0.834755
Ti	     -0.00634      2.27607      2.09587        -0.736645     -0.479310      1.149727
Ti	      2.16110      2.26988      4.29206        -1.037345      0.721577      0.021278
Ti	      0.08812      4.34465      0.10521         0.785602      1.029782     -0.474850
O	      0.02702      2.13686     -0.00033        -1.329156      2.428892      0.706177
O	     -0.01469      4.34193     -2.19174         0.122419     -0.514666      2.583059
O	      2.16428      2.16486      2.20802         0.526122      0.400425      2.084500
O	      2.06388      4.42507      0.00144        -3.429067      2.027876      0.306264
O	      0.08931      4.34209      2.29760        -0.150942     -0.893084     -3.187680
O	      0.04397      6.55216      0.10784         1.533363     -2.499431      0.070276
O	      2.24469      4.24532      4.39916         2.667704     -2.834965     -0.336008
O	      2.14839      6.50540      2.19194         1.075506     -0.251953     -2.087988
