# total energy = -102.46572687 eV
 
CRYSTAL
PRIMVEC
2.010389 4.069895 2.010892 
4.006738 -4.043733 -0.038701 
4.044894 -0.000537 -4.044877 
PRIMCOORD
12 1
Ti	      7.75979      0.02345     -0.08855        -1.070942      0.180328      3.192712
Ti	      7.76368     -1.95042     -2.04252         3.298973     -0.361281     -2.032130
Ti	      3.93691      0.01398      0.01230        -2.545839     -0.245318      1.639431
Ti	      3.94060     -1.96008     -1.94157         0.915206     -0.224415     -3.415445
O	      3.91458     -1.95715     -0.03738        -0.224572      1.111593      1.283742
O	      5.84121      0.01666     -0.01390         1.808213      1.574033      0.582995
O	      2.05056      0.00613     -0.11581         0.717839     -0.010212     -2.201416
O	      3.88987      1.98006     -0.00399         0.492257      1.398256     -0.682940
O	      5.85940     -1.95324     -2.01656        -0.229855     -2.442466     -0.287853
O	      7.78601      0.02068     -1.99308         0.565151     -1.867531     -0.449174
O	      3.92397      0.00611     -1.98878        -1.610892      0.224877      0.441150
O	      5.76316      1.97964     -1.87728        -2.115539      0.662134      1.928929
