# total energy = -180.88762260 eV
 
CRYSTAL
PRIMVEC
0.029645 6.183072 6.221159 
10.537244 -0.000523 10.418539 
10.537179 4.121679 10.418387 
PRIMCOORD
22 1
Ti	     12.63997      4.12006     12.53468        -0.332752      0.005847     -4.092789
Ti	     16.82406      4.12103     16.65883         1.308771     -0.001498      0.384805
Ti	      8.48425      6.18299     14.53389        -4.514902     -0.011281     -2.308047
Ti	     12.62819      6.18274     14.59222         4.516747     -0.010583      2.302552
Ti	      4.25762      2.06003      6.24593        -1.310789      0.002231     -0.381603
Ti	      8.44274      2.05958     10.37116         0.333469      0.004920      4.089416
Ti	     10.55644      4.12082     14.56390         0.000415      0.008165      0.003097
O	     12.63171      2.05899     12.53387         0.095579      0.007617      2.653052
O	     14.65243      2.05982     14.68623        -3.035329      0.000664      1.212854
O	      6.29256      2.06036      6.23081        -1.912146     -0.001329     -0.067843
O	      8.44101      8.24420     14.50112         2.093284     -0.010087      1.671741
O	     10.43348      2.06056     10.34543        -2.033168     -0.003958     -2.812813
O	     12.67202      4.12119     14.62631        -2.094495     -0.006467     -1.679744
O	     14.78985      4.12056     16.67411         1.910082      0.001314      0.067215
O	      6.43094      4.12176      8.21846         3.027652      0.001509     -1.207915
O	      8.45071      4.12100     10.37103        -0.090860      0.007794     -2.642709
O	     10.64971      4.12061     12.56064         2.034747      0.000289      2.807506
O	     12.70322      6.18168     16.66949         1.206931      0.000122     -0.271934
O	     14.68644      6.18165     18.65522        -1.664802     -0.000786     -1.156551
O	      6.42566      6.18259     10.47098         1.664978     -0.000640      1.161101
O	      8.40963      6.18207     12.45760        -1.205406      0.002206      0.267374
O	     10.55647      6.18203     14.56327         0.001993      0.003950      0.001234
