# total energy = -101.63565876 eV
 
CRYSTAL
PRIMVEC
2.036981 4.135084 2.084124 
4.138008 -2.085666 -2.111129 
0.003136 4.143040 -4.186121 
PRIMCOORD
12 1
Ti	      4.10602      4.12987     -0.02086         0.006439     -0.003130      0.005548
Ti	      2.03553      4.12807     -2.12586        -2.522730     -1.172718      4.366339
Ti	      4.10815      6.20111     -2.11392        -0.000397      0.003649     -0.001579
Ti	      4.14367      4.13924     -4.18552         2.518477      1.174157     -4.381668
O	      2.05380      2.06487     -2.13103         0.096376      0.379472     -2.665292
O	      4.14875      4.08583     -2.09397        -1.733795      2.303968     -0.244919
O	      2.03055      4.18125     -4.21782         1.731887     -2.301526      0.248340
O	      4.12250      2.05954      0.00487        -0.098150     -0.376861      2.668950
O	      4.06770     -0.01402     -2.01184        -2.404922      0.111945      3.203943
O	      2.10870      4.13868     -0.11375         2.403363     -0.114373     -3.200727
O	      4.11522      2.07197     -4.19564        -0.219612      2.169927      0.097448
O	      2.06425      6.19544     -2.11597         0.223064     -2.174510     -0.096382
