# total energy = -99.21799017 eV
 
CRYSTAL
PRIMVEC
0.000037 2.085277 2.085334 
4.110230 -4.257024 4.257164 
4.097565 4.250559 -4.250575 
PRIMCOORD
12 1
Ti	      2.05815     -0.03690      2.12096        -4.140689      5.224769     -5.224703
Ti	      6.06215      2.10793     -0.02381        -5.532923     -2.078521      2.079805
Ti	      4.05064     -0.02951      4.19875         4.841733     -1.870892      1.870555
Ti	      6.28749     -0.00868      2.09274         4.489949     -0.866013      0.866490
O	      4.18906      2.07470      0.00955         4.063357      0.177432     -0.176540
O	      4.17607     -0.02864      2.11276        -1.390880     -1.737735      1.739797
O	      6.19415      2.09295      2.07708         0.020568      0.185835     -0.187860
O	      4.10804     -2.07780      4.16215        -1.599217      2.415229     -2.417078
O	      6.12971      0.02493      4.14487        -2.344005      1.887672     -1.889017
O	      4.07603      4.24610     -2.16188        -1.048016     -0.207436      0.207312
O	      2.05967      1.97497      2.19449         0.373202     -3.232086      3.233272
O	      6.01538      4.19177     -0.02217         2.266922      0.101746     -0.102035
