# total energy = -102.17096388 eV
 
CRYSTAL
PRIMVEC
-0.000002 2.080766 2.080740 
4.109708 -2.140661 2.140558 
4.026167 6.339438 -6.339234 
PRIMCOORD
12 1
Ti	      6.10485      4.18995     -2.10745         0.009875     -0.002724      0.002301
Ti	      5.98895      6.28876     -4.20573        -2.340511      1.547597     -1.549170
Ti	      4.09059     -0.02109      0.02144         0.005552      0.005061     -0.002281
Ti	      2.10973      4.23132     -2.14941         2.331881     -1.552140      1.547906
O	      4.08147      4.20062     -2.11870         0.046933      0.077427     -0.076496
O	      4.13299      2.03967      0.04175         1.695998     -1.778622      1.782051
O	      6.11899      2.09677     -2.09551        -0.034049      0.271561     -0.268906
O	      4.04893     -0.00077      2.08177        -1.704025      1.778706     -1.771981
O	      2.01382      2.14752     -2.14537        -1.392473      2.280005     -2.282393
O	      4.01725      6.31921     -4.23588        -0.054417     -0.072954      0.070915
O	      2.05770     -0.04768      0.04922         1.394028     -2.282714      2.279220
O	      6.08926      4.20222     -4.20019         0.041208     -0.271202      0.268834
