# total energy = -749.72348967 eV
 
CRYSTAL
PRIMVEC
3.875849 8.653409 4.222714 
7.926252 -4.468490 -4.149877 
5.801808 6.344665 -0.013308 
PRIMCOORD
108 1
Mn	      7.81241      4.15856     -4.05644        -0.735093      0.339303      0.549686
Mn	      9.72412      6.29571     -8.14828         0.107725      0.144750     -0.402675
Mn	     11.66741      8.40682    -12.33291        -0.521824      0.068197     -0.031304
Mn	     11.72267      1.97218     -6.10420         0.679742     -0.016424     -0.852370
Mn	      5.79346      8.53690     -6.11374        -1.013361      0.055643     -0.046673
Mn	     15.60536      6.16263    -14.41817        -0.431543     -1.185572      0.647841
Mn	      9.75284      8.49187     -1.93234        -0.799556      0.751584      0.249435
Mn	     11.66072     10.58055     -6.03671         0.216892      0.313524     -0.195746
Mn	     13.59525     12.71060    -10.19922         0.150397      0.367089     -0.178389
Mn	     13.66749      6.27824     -3.97838         0.005621      0.222880     -0.596641
Mn	      7.71349     12.84580     -3.98952        -0.191438      0.519611      0.434955
Mn	     17.54801     10.50510    -12.32582        -0.027413     -0.065185      1.414839
Mn	      1.88323      2.21379     -0.10198         0.476649     -0.875095      0.383126
Mn	      3.89179      4.28100     -4.08756        -0.124379      0.035883     -0.079191
Mn	      5.90477      6.28371     -8.11582        -0.572358      0.628142     -0.364743
Mn	      5.91049     -0.12430     -2.05503        -0.092015      0.094342      0.041118
Mn	      7.88343      1.99333     -6.10274        -0.471951      0.028609     -0.420650
Mn	      9.78278      4.13429    -10.33053         0.065343      0.004549      0.081430
Mn	      3.82397      6.49737      2.02427         0.536233     -0.463925      0.467942
Mn	      5.83832      8.57112     -1.99931        -0.214924      0.375872      0.055598
Mn	      7.74964     10.72202     -6.11566        -0.017111      0.173927     -0.060381
Mn	      7.86034      4.20538      0.05101        -0.134770      0.035316     -0.019652
Mn	      9.75837      6.33678     -4.02143         0.584609      0.276431     -0.269136
Mn	     11.72134      8.50526     -8.26704         0.018471     -0.475056      0.162966
Mn	      1.99102     -0.02385     -2.10053         0.961174     -0.204124     -0.040769
Mn	      3.95410      2.10408     -6.21020        -0.295753      0.271652      0.060642
Mn	      5.88301      4.23068    -10.37703         0.394331      0.442437     -0.159547
Mn	      9.84640      6.39116     -0.00796         0.059454     -0.093041      0.857508
Mn	      7.88749     -0.13933     -8.27922         0.421101     -0.138236     -0.928697
Mn	      9.84290      1.98616    -12.45018         0.506705     -0.268308      0.150809
Mn	      3.91316      4.33348     -0.01590         0.665548     -1.243290     -0.345682
Mn	      5.93623      6.42433     -4.14367        -0.696850     -0.072363      0.266812
Mn	      7.83064      8.53813     -8.23162         0.043498     -0.046462     -1.261541
Mn	      7.90722      2.04921     -2.14953        -0.570718     -0.389927      0.988611
Mn	      9.81160      4.18742     -6.19640         0.984715      0.431350     -0.672838
Mn	     11.76532      6.29684    -10.34774        -0.156240     -0.177598      0.264147
O	      3.94793     -0.31563     -2.16558        -0.019809     -0.775789      0.491751
O	      5.86902      1.79349     -6.26928         0.420260     -0.494252      0.426604
O	      7.81861      3.91036    -10.42996         0.115943     -0.681830      0.508194
O	      7.88856     -2.54405     -4.01820         0.044472     -0.125702     -0.539184
O	      9.84237     -0.43511     -8.34072        -0.104210     -0.302186      0.473544
O	     11.82172      1.67061    -12.37419         0.082701     -0.478840     -0.040183
O	      5.89094      4.00043     -0.04994        -0.077332     -0.366416      0.439874
O	      7.82394      6.08969     -4.02958         0.160063     -0.139666     -0.105204
O	      9.75655      8.25922     -8.32534        -0.028639     -0.388970      0.538783
O	      9.78973      1.71721     -2.02179         0.503980      0.267717     -0.004044
O	     11.80197      3.92002     -6.25110        -0.250381     -0.684355      0.495727
O	     13.68873      6.00614    -10.38758         0.459378     -0.401358      0.420357
O	      5.90049      1.82102     -1.88192         0.907294     -0.216126      0.011709
O	      7.92125      3.93955     -6.01007        -0.022931     -0.041021      0.137845
O	      9.79646      6.08043    -10.14576         0.870321     -0.337536      0.267220
O	      9.91565     -0.34904     -3.99391        -0.007933      0.024739      0.046108
O	     11.90063      1.77264     -8.18098         0.248032     -0.536360      0.943523
O	     13.83788      3.79506    -12.26207         0.227541     -0.307542      0.788080
O	      7.91987      6.17501      0.21673         0.179113     -0.511559      0.326470
O	      9.85168      8.30857     -3.88013        -0.020609     -0.561781      0.131362
O	     11.80390     10.44172     -8.04194         0.111951     -0.451672      0.371490
O	     11.88333      3.99271     -1.83944        -0.186777     -0.350290     -0.237392
O	     13.77453      6.08283     -5.96309         0.805271     -0.526424      0.371935
O	     15.75641      8.25983    -10.08808         0.067596     -0.890492      0.064049
O	      3.81106      2.32312     -4.19264        -0.161927      0.313957     -0.800400
O	      5.77365      4.35719     -8.38158        -0.049472      0.504750     -0.161095
O	      7.66803      6.57728    -12.50659        -0.207656      0.392705     -0.784495
O	      7.78461      0.05772     -6.33089         0.061422      0.101249      0.046611
O	      9.83430      2.18691    -10.49531        -1.237613      0.268449     -0.044668
O	     11.72217      4.29175    -14.62707        -1.053746      0.172383     -0.242582
O	      5.76194      6.62050     -2.17506        -0.294027      0.441307     -0.276360
O	      7.69087      8.73768     -6.31130         0.076585      0.388818      0.046345
O	      9.59133     10.78776    -10.47008        -0.077566      1.154543     -0.172889
O	      9.71854      4.39746     -4.24827        -0.043702      0.019459      0.015554
O	     11.65548      6.53558     -8.31525        -0.209946      0.366129     -0.897432
O	     13.56873      8.58536    -12.51508        -0.081067      0.498740     -0.433418
O	      3.88675      2.37450     -0.01231        -0.133819      0.603251      0.047335
O	      5.85264      4.49808     -3.99413         0.187451      0.200315     -0.506791
O	      7.82080      6.57651     -8.35354        -0.072745      0.173472      0.528804
O	      7.86307      0.06837     -1.94869        -0.029215      0.822284     -0.570779
O	      9.83616      2.26792     -6.24462        -0.264290      0.010729      0.091181
O	     11.75166      4.33006    -10.20090        -0.032908      0.817688     -0.459831
O	      5.84505      6.69767      2.21866        -0.299296      0.393826     -0.325817
O	      7.77465      8.83313     -1.87412         0.208125      0.163173     -0.421439
O	      9.71079     10.95766     -6.03617         0.022796      0.053964     -0.419165
O	      9.81901      4.43763      0.16529         0.025269      0.418216     -0.548691
O	     11.74869      6.57354     -4.18214        -0.168194      0.246953      0.525421
O	     13.69428      8.69702     -8.09978        -0.090463      0.364648     -0.449377
O	      2.05340      1.90027     -2.16250        -0.251283     -0.290192      0.601412
O	      3.84740      4.04990     -6.28000         0.423554     -0.928364      0.447197
O	      5.85752      6.17805    -10.42278         0.112138     -1.033008      0.192136
O	      5.86403     -0.36750     -4.24762         0.417463     -0.270204      0.223230
O	      7.80336      1.75151     -8.34629         0.391201     -0.293489      0.121546
O	      9.72713      3.87378    -12.50361         0.441456     -0.150290      0.200293
O	      3.91386      6.21141     -0.06373         0.020440      0.081888      0.333127
O	      5.82713      8.33503     -4.20689         0.476615     -0.400393      0.307182
O	      7.72381     10.42491     -8.33096         0.346444     -0.319455      0.130714
O	      7.84105      3.94513     -2.14525         0.357059     -0.437822      0.095113
O	      9.87248      6.10007     -6.25840        -0.227598     -0.370696      0.375703
O	     11.66403      8.20847    -10.41267         0.325453     -0.354297      0.397981
O	      3.93044      4.50549     -1.93529        -0.511107      0.823834     -0.432912
O	      5.74992      6.62465     -6.05284         0.250023      0.171433     -0.469409
O	      7.72840      8.66274    -10.19863        -0.142412      1.131928     -0.261692
O	      7.80424      2.26371     -4.02883        -0.092680      0.060277     -0.362510
O	      9.81685      4.40675     -8.11891        -0.357038      0.263716     -0.163157
O	     11.75324      6.50013    -12.25527        -0.416828      0.234410     -0.333140
O	      5.83431      8.83978      0.21576        -0.414636      0.358184     -0.238288
O	      7.78373     10.95740     -3.92205        -0.412081      0.248287     -0.251606
O	      9.70922     13.08089     -8.07354        -0.358210      0.376141     -0.179241
O	      9.77056      6.60847     -1.88801        -0.069797     -0.018872     -0.521455
O	     11.76158      8.64867     -6.00461        -0.347043      1.114773     -0.125297
O	     13.70402     10.79971    -10.13070        -0.331334      0.522432     -0.352407
