# total energy = -51.22998376 eV
 
CRYSTAL
PRIMVEC
4.142418 0.000000 0.000000 
0.001373 4.142418 0.000000 
2.070946 2.054934 4.303298 
PRIMCOORD
6 1
Ti	      2.10211      2.09898      2.19467        -0.350337     -0.359156     -0.187313
Ti	      0.00126      2.10162      0.00057        -0.158083      0.364136      0.186658
O	      2.10316      2.10376      0.01227         0.261719     -0.087613      2.632812
O	      4.20452      2.09671      2.18296        -0.033743      0.083925     -2.639665
O	      0.00000      0.00000      0.00000         0.201971      0.144406     -2.577939
O	      2.10342      4.20018      2.19532         0.078472     -0.145697      2.585447
