# total energy = -101.86775130 eV
 
CRYSTAL
PRIMVEC
4.129892 0.000125 -0.000022 
0.000025 -0.000025 -4.040551 
2.065241 8.471264 -2.020251 
PRIMCOORD
12 1
Ti	      2.06351      0.00757     -2.01830         0.003095     -0.461386      0.001798
Ti	      4.12893      2.05379     -2.01824        -0.004011      0.261086     -0.005401
Ti	      2.06358      4.30130     -2.01711         0.000702     -0.255287      0.029283
Ti	      4.12826      6.34884     -2.01816        -0.000878      0.456887      0.000357
O	      2.06382      2.14568     -2.01855        -0.005126     -1.122923      0.003352
O	      4.12840      4.21043     -2.01848         0.000349      1.112720     -0.001466
O	      4.12863      8.45758     -2.01854        -0.000644     -2.518705      0.004605
O	      4.12872      2.09518     -4.03817         0.001838     -0.007492      0.004568
O	      2.06353      6.35222     -2.01759         0.002811     -2.160397     -0.008088
O	      2.06364      4.25858     -4.03908        -0.000592      0.018903     -0.022402
O	      4.12819      6.36988     -4.03850         0.000797      2.512415     -0.002903
O	      4.12836      0.00352     -2.01770         0.001660      2.164177     -0.003703
