# total energy = -749.12982707 eV
 
CRYSTAL
PRIMVEC
3.889706 8.671792 4.228378 
7.944180 -4.468081 -4.163618 
5.833809 6.352894 -0.013379 
PRIMCOORD
108 1
Mn	      7.83360      4.19565     -4.09312        -0.384066      0.091512      1.046546
Mn	      9.75941      6.31928     -8.17409         0.133373      0.142785     -0.314745
Mn	     11.70942      8.42102    -12.32302        -0.443896      0.231321     -0.185145
Mn	     11.75279      1.90059     -6.16513         0.348168      0.423083     -0.211259
Mn	      5.81851      8.54015     -6.12941        -0.968134      0.135670      0.017934
Mn	     15.66403      6.17457    -14.41936        -0.459515     -0.457002      0.152372
Mn	      9.79123      8.53635     -1.95682        -1.026865     -0.474692      0.663562
Mn	      7.80415      1.96950    -10.26328         0.809593      0.089505     -0.835359
Mn	     13.66362     12.77007    -10.21454         0.216341      0.212069     -0.278719
Mn	     13.70696      6.30002     -4.00547         0.200340      0.123354     -0.512528
Mn	      3.88635      4.18670     -8.22376        -0.683375      1.245576      0.415286
Mn	     17.61433     10.53193    -12.33593        -0.026253      0.002161      1.309326
Mn	      1.87658      2.22512     -0.10160         0.567617     -0.616082      0.379062
Mn	      3.91601      4.24521     -4.13034        -0.008526     -0.063118     -0.046026
Mn	      5.92477      6.30032     -8.12975        -0.478528      0.907462     -0.380712
Mn	      5.93251     -0.08591     -2.04179        -0.076518      0.041275     -0.060340
Mn	      7.79199      2.10675     -6.30298         0.404943     -0.364558      0.368078
Mn	      9.81761      4.15453    -10.33686         0.159720     -0.196316      0.032897
Mn	      3.89376      6.47320      2.10154         0.020025     -0.287375      0.131906
Mn	      5.84667      8.58595     -2.00820        -0.040771      0.305441      0.034000
Mn	      7.85612     10.67848     -6.02784        -0.497876      0.481080     -0.481720
Mn	      7.88087      4.20483      0.11670        -0.012674      0.448311     -0.192145
Mn	      9.83622      6.36021     -4.08284        -0.059443     -0.120642      0.000226
Mn	     11.76273      8.54418     -8.27431         0.013047     -0.496603      0.211238
Mn	      1.99432     -0.02051     -2.10425         0.972494     -0.054112      0.009865
Mn	      7.86308     10.75782     -2.05650        -0.887974      0.085300      0.938725
Mn	      5.92088      4.21983    -10.37193         0.426375      1.147939     -0.614782
Mn	      5.99580     -2.24954     -4.22602        -0.120531     -0.138158      0.367214
Mn	      7.90695     -0.11502     -8.31494         0.732555     -0.759113     -0.973166
Mn	      9.87927      1.99170    -12.47011         0.481439     -0.165150      0.233507
Mn	      3.93975      4.31451      0.00228         0.177205     -0.708878     -0.388651
Mn	      5.95407      6.43585     -4.15885        -0.226269     -0.181935      0.202071
Mn	      7.86191      8.55113     -8.23532         0.053306      0.046840     -1.377632
Mn	      7.92295      2.12007     -2.11315        -0.227599     -0.190130      0.224656
Mn	      9.83938      4.21830     -6.22192         0.903831     -0.198276     -0.321258
Mn	     11.83704      6.32696    -10.35000        -0.245394     -0.368841      0.284228
O	      3.96629     -0.29113     -2.16912        -0.020459     -0.787610      0.458950
O	      5.84790      1.78685     -6.15502         0.534846      0.013050     -0.074372
O	      7.86483      3.93956    -10.44205        -0.002897     -0.686024      0.545069
O	      7.90282     -2.53449     -4.02779         0.075434     -0.159746     -0.525588
O	      9.88494     -0.43654     -8.37224        -0.217082     -0.286223      0.489027
O	     11.85766      1.67798    -12.39089         0.176633     -0.603794     -0.040563
O	      5.89682      4.00883     -0.02889         0.060852     -0.372340      0.438292
O	      7.87125      6.13181     -3.98590         0.057473     -0.198341     -0.464254
O	      9.79025      8.27734     -8.34406        -0.048919     -0.356299      0.527704
O	      9.85256      1.75081     -2.13306         0.271610     -0.074728      0.448045
O	     11.82655      3.88421     -6.28484        -0.176324     -0.829781      0.442398
O	     13.79054      6.00692    -10.38346         0.143486     -0.400487      0.336620
O	      5.89232      1.87189     -1.86880         1.116631     -0.347092      0.090066
O	      7.92151      4.05231     -6.03015        -0.111277     -0.209621     -0.160761
O	      9.81051      6.08845    -10.14822         1.175089     -0.147052      0.175660
O	      9.94221     -0.31767     -4.00232         0.085987     -0.510875      0.139329
O	     11.94087      1.74331     -8.19505         0.219048     -0.503648      0.961693
O	     13.88437      3.81481    -12.28725         0.205802     -0.390982      0.780836
O	      7.95224      6.17703      0.16514         0.199706     -0.357535      0.892453
O	      9.89144      8.30520     -3.90500         0.007072     -0.030836      0.023236
O	     11.85751     10.48441     -8.06996         0.104461     -0.487300      0.392332
O	     11.92779      3.99864     -1.84000        -0.134437     -0.481933     -0.145903
O	     13.80101      6.10130     -5.97933         0.878776     -0.630032      0.266258
O	     15.84315      8.27408    -10.09799         0.086998     -1.158281      0.157337
O	      3.81598      2.28127     -4.20415        -0.212980      0.552264     -0.954027
O	      5.81164      4.39438     -8.39033        -0.001438     -0.047282     -0.068568
O	      7.70355      6.59999    -12.51472        -0.237972      0.310077     -0.789949
O	      7.78455      0.09794     -6.38856         0.031756      0.418744     -0.022530
O	      9.83906      2.18725    -10.51122        -1.025064      0.504724     -0.138100
O	     11.76439      4.32336    -14.64869        -0.984485      0.288729     -0.229304
O	      5.91793      6.64975     -2.21555        -1.421181      0.146908     -0.073035
O	      7.72776      8.71415     -6.32233         0.178090      0.346883      0.230251
O	      9.63969     10.78543    -10.46643        -0.013761      1.080618     -0.037435
O	      9.74896      4.39863     -4.27071        -0.015329      0.481707     -0.094500
O	     11.69608      6.56278     -8.32401        -0.209665      0.397653     -0.926113
O	     13.62477      8.61886    -12.51006        -0.128448      0.470089     -0.372228
O	      3.89270      2.36476      0.02339        -0.103003      0.518435      0.028621
O	      5.88585      4.49466     -4.01940         0.173517      0.317137     -0.472571
O	      7.85164      6.59947     -8.36143        -0.128575      0.128056      0.519849
O	      7.88820      0.14222     -1.94423        -0.090147      0.620321     -0.515702
O	      9.74939      2.29164     -6.14243         0.472818      0.206576     -0.314621
O	     11.78963      4.35162    -10.22129         0.097627      0.896878     -0.460811
O	      5.89832      6.71263      2.23222        -0.418099      0.398318     -0.412372
O	      7.79883      8.81640     -1.89976         0.162707      0.587202     -0.493899
O	      9.81257     10.98384     -6.15560        -0.482931     -0.214843     -0.005361
O	      9.85315      4.45871      0.17545         0.035265      0.377883     -0.532688
O	     11.79390      6.60448     -4.20722        -0.150370      0.349584      0.528926
O	     13.74164      8.73025     -8.12549        -0.003326      0.337492     -0.442997
O	      2.04607      1.89559     -2.16489        -0.265849     -0.215403      0.548440
O	      3.87229      4.03217     -6.29689         0.445479     -0.954326      0.323968
O	      5.88630      6.18639    -10.42910         0.119893     -1.106581      0.235852
O	      5.90055     -0.35783     -4.26295         0.348810     -0.266888      0.110237
O	      7.89322      1.76789     -8.38364         0.048557      0.030731      0.279839
O	      9.78306      3.89302    -12.52928         0.429614     -0.222277      0.279143
O	      3.83835      6.19154     -0.06998         0.454773     -0.107384      0.091136
O	      5.84061      8.33922     -4.22535         0.424229     -0.321966      0.238607
O	      7.76863     10.44290     -8.33717         0.336615     -0.374649      0.163148
O	      7.83943      4.05067     -2.13737         0.337680     -1.051712      0.119545
O	      9.92993      6.12975     -6.27581        -0.217445     -0.375152      0.405357
O	     11.71675      8.24291    -10.41593         0.350079     -0.482022      0.464358
O	      3.95177      4.40908     -1.93572        -0.456939      1.281741     -0.413583
O	      5.75406      6.62517     -6.06786         0.276266      0.211841     -0.502279
O	      7.74458      8.69224    -10.20957        -0.108553      1.020590     -0.190846
O	      7.88737      2.30644     -4.02031        -0.376365      0.313764     -0.127826
O	      9.84594      4.42186     -8.13702        -0.376636      0.305909     -0.154592
O	     11.82642      6.52928    -12.26743        -0.433514      0.149267     -0.216696
O	      5.85922      8.85962      0.21810        -0.433014      0.303059     -0.238507
O	      7.75887     10.98043     -3.94353        -0.022522     -0.055205     -0.301283
O	      9.76849     13.10978     -8.07980        -0.335416      0.336934     -0.112485
O	      9.73746      6.61831     -1.89464         0.229580      0.376999     -0.414086
O	     11.79834      8.71104     -6.03063        -0.400529      1.006005     -0.099218
O	     13.77471     10.85662    -10.15374        -0.334470      0.400374     -0.441438
