# total energy = -101.15539673 eV
 
CRYSTAL
PRIMVEC
4.096734 -0.000807 -0.000758 
2.048711 4.076336 -6.345306 
-2.049573 4.146800 2.161501 
PRIMCOORD
12 1
Ti	      0.00074      4.13582      0.02985         0.006312     -2.974844      5.681069
Ti	      2.05071      4.08637     -2.12220        -0.015762     -3.245714      0.881346
Ti	      0.00013      6.19430     -2.04286         0.014587      3.254334     -0.890713
Ti	      2.04996      6.14585     -4.19573        -0.005925      2.966688     -5.677368
O	      4.09866      4.05983     -2.10427        -0.007980      2.023468      1.231164
O	      0.00155      2.15265      0.12508        -0.002218      2.122675      2.168050
O	      2.04900      6.21997     -2.06212         0.008178     -2.025201     -1.224679
O	      2.04926      4.15918     -0.00846         0.007726      0.127912     -3.390540
O	      2.04987      4.11127     -4.21584         0.000700     -1.628851      2.951991
O	      4.09832      6.12149     -4.15789        -0.004494     -0.127844      3.390221
O	      2.05062      2.02294     -2.11103         0.001105      1.621995     -2.948166
O	      0.00095      4.05216      2.05498        -0.002230     -2.114619     -2.172376
