# total energy = -748.49563337 eV
 
CRYSTAL
PRIMVEC
3.808764 8.725929 4.274177 
7.791494 -4.484567 -4.231491 
5.778170 6.288709 -0.014059 
PRIMCOORD
108 1
Mn	      7.69762      4.13471     -4.16581         0.156647     -0.708664      1.219842
Mn	      9.59708      6.28428     -8.24641        -0.121596     -0.090088      0.142506
Mn	     11.55251      8.43475    -12.18363        -0.671098      1.204549     -1.653770
Mn	      3.80179      6.37699     -2.05035         0.152601     -0.698614      1.209059
Mn	     13.49220      4.04152    -10.36275        -0.120769     -0.087977      0.142658
Mn	     15.44875      6.19193    -14.29937        -0.676324      1.203216     -1.653982
Mn	      9.60191      8.49784     -2.02865         0.159381     -0.707464      1.209868
Mn	     11.50122     10.64704     -6.10954        -0.122549     -0.092673      0.145865
Mn	      9.64877      4.07160    -14.32060        -0.671577      1.209957     -1.651040
Mn	      5.70613     10.73998      0.08698         0.156563     -0.708015      1.214483
Mn	     15.39662      8.40455     -8.22564        -0.122390     -0.093185      0.143884
Mn	     13.54393      1.82883    -16.43661        -0.671119      1.215414     -1.651545
Mn	      1.96130      2.12770      0.32744        -0.297985      1.253012     -0.955370
Mn	      3.80979      4.27553     -4.40752         0.298637     -1.252910      0.952346
Mn	      5.77465      6.34536     -8.23964         0.002794      0.003509      0.000893
Mn	      5.85710     -0.11413     -1.78794        -0.293975      1.254132     -0.955596
Mn	      7.70552      2.03377     -6.52356         0.299729     -1.255208      0.957110
Mn	      9.66994      4.10420    -10.35524         0.001781     -0.000074      0.002012
Mn	      3.86590      6.49074      2.46423        -0.298646      1.249665     -0.954423
Mn	      5.71448      8.63834     -2.27016         0.297530     -1.249525      0.953154
Mn	      7.67856     10.70866     -6.10274         0.001824     -0.001879      0.000789
Mn	      7.76134      4.24883      0.34897        -0.295666      1.248032     -0.962303
Mn	      9.60988      6.39621     -4.38569         0.297200     -1.251111      0.957264
Mn	     11.57455      8.46710     -8.21822         0.000860     -0.001283      0.000455
Mn	      1.96964      0.02637     -2.02932        -0.155703      0.715794     -1.214277
Mn	      7.70086     10.74145     -2.13729         0.673680     -1.211961      1.651748
Mn	      5.84735      4.16539    -10.34870         0.127969      0.086513     -0.140364
Mn	      5.86546     -2.21576     -4.14508        -0.154761      0.709439     -1.217421
Mn	     11.59655      8.49901     -4.25270         0.671463     -1.208499      1.653533
Mn	      9.74377      1.92381    -12.46385         0.123731      0.086840     -0.141643
Mn	      3.87378      4.38928      0.10719        -0.163048      0.703210     -1.206599
Mn	      5.79659      6.37838     -4.27421         0.676146     -1.210072      1.650893
Mn	      7.75209      8.52842     -8.21124         0.126145      0.090846     -0.144036
Mn	      7.76974      2.14707     -2.00795        -0.161784      0.715405     -1.214722
Mn	      9.69270      4.13632     -6.38983         0.670478     -1.214014      1.651768
Mn	     11.64766      6.28687    -10.32700         0.126970      0.089820     -0.143675
O	      3.90544     -0.21248     -2.12775         0.297516     -1.116863      0.501031
O	      5.81946      1.70847     -6.18933        -0.143381     -0.002195     -0.533506
O	      7.74918      3.82757    -10.30256        -0.079315     -0.024733     -0.048236
O	      7.80105     -2.45520     -4.24366         0.298758     -1.117378      0.500555
O	      9.71504     -0.53408     -8.30492        -0.146000     -0.003149     -0.532499
O	     11.64545      1.58505    -12.41814        -0.082290     -0.023999     -0.048996
O	      5.80948      4.15068      0.00887         0.299663     -1.121680      0.501250
O	      7.72377      6.07104     -4.05178        -0.143983     -0.001685     -0.532790
O	      9.65389      8.19071     -8.16464        -0.080657     -0.024503     -0.050017
O	      9.70552      1.90799     -2.10675         0.293116     -1.120228      0.500180
O	     11.61976      3.82880     -6.16763        -0.145696     -0.001145     -0.534087
O	     13.54940      5.94814    -10.28292        -0.080539     -0.024951     -0.045702
O	      5.84627      1.95699     -1.92236         0.705862     -0.919517      1.305786
O	      7.78491      3.93181     -6.08924         0.104733      0.013500     -0.325609
O	      9.72501      6.07068    -10.17041         0.024071     -0.084210      0.004604
O	      9.74186     -0.28595     -4.03833         0.701619     -0.919306      1.307277
O	     11.68039      1.68911     -8.20537         0.104854      0.017609     -0.325481
O	     13.62092      3.82715    -12.28664         0.023724     -0.081048      0.004350
O	      7.75078      6.31989      0.21493         0.704268     -0.917871      1.303989
O	      9.68874      8.29435     -3.95217         0.107526      0.017053     -0.324705
O	     11.62976     10.43355     -8.03336         0.022016     -0.086817      0.004405
O	     11.64646      4.07711     -1.90100         0.703255     -0.914146      1.304281
O	     13.58460      6.05192     -6.06811         0.106727      0.016909     -0.324558
O	     15.52490      8.19048    -10.14960         0.022888     -0.085694      0.004822
O	      3.82083      2.20469     -4.27335        -0.703854      0.918432     -1.301979
O	      5.71915      4.37897     -8.42469        -0.020958      0.084227     -0.005520
O	      7.66036      6.51809    -12.50528        -0.106585     -0.014030      0.323288
O	      7.71638     -0.03777     -6.38900        -0.701804      0.921774     -1.302192
O	      9.61520      2.13777    -10.53982        -0.023031      0.083741     -0.006928
O	     11.55661      4.27635    -14.62106        -0.107974     -0.015510      0.324497
O	      5.72528      6.56768     -2.13620        -0.701138      0.918592     -1.303185
O	      7.62348      8.74218     -6.28728        -0.021882      0.086209     -0.007280
O	      9.56509     10.88118    -10.36870        -0.111036     -0.019846      0.323852
O	      9.62114      4.32535     -4.25168        -0.706770      0.918898     -1.301673
O	     11.51980      6.50072     -8.40313        -0.022380      0.084850     -0.006979
O	     13.46041      8.63931    -12.48379        -0.109161     -0.018106      0.320119
O	      3.84735      2.45297     -0.00716         0.140445     -0.001955      0.535063
O	      5.76172      4.37338     -4.06738        -0.293826      1.123299     -0.501440
O	      7.69530      6.62191     -8.29246         0.082603      0.024565      0.046190
O	      7.74322      0.21078     -2.12199         0.141003     -0.000013      0.532666
O	      9.65740      2.13121     -6.18319        -0.300079      1.126281     -0.501487
O	     11.59055      4.38034    -10.40865         0.081256      0.024916      0.047343
O	      5.75206      6.81602      2.13062         0.143478      0.000035      0.533155
O	      7.66616      8.73671     -1.92990        -0.296311      1.122788     -0.503353
O	      9.59936     10.98491     -6.15575         0.080413      0.021232      0.046832
O	      9.64752      4.57376      0.01469         0.139697      0.001812      0.531029
O	     11.56171      6.49405     -4.04564        -0.295713      1.126090     -0.500634
O	     13.49512      8.74323     -8.27138         0.079330      0.023359      0.046614
O	      1.96063      1.94929     -2.21029        -0.001145     -0.876546     -0.101706
O	      3.89951      3.87025     -6.36774         0.014576      0.382600      0.082654
O	      5.83484      6.09025    -10.36714         0.120052     -0.284671      0.552898
O	      5.85648     -0.29257     -4.32588         0.001171     -0.877264     -0.103630
O	      7.79564      1.62787     -8.48319         0.013067      0.384188      0.082845
O	      9.73126      3.84883    -12.48252         0.118753     -0.287571      0.552922
O	      3.86481      6.31224     -0.07346        -0.001986     -0.875882     -0.102748
O	      5.80418      8.23324     -4.23056         0.014373      0.383775      0.081802
O	      7.73958     10.45351     -8.22986         0.117984     -0.289808      0.551882
O	      7.76080      4.07001     -2.18890        -0.000537     -0.877746     -0.104598
O	      9.70091      5.99111     -6.34591         0.012456      0.382863      0.082138
O	     11.63481      8.21199    -10.34551         0.118696     -0.289905      0.551217
O	      3.81082      4.45392     -1.86982         0.001507      0.875792      0.106293
O	      5.71326      6.60085     -6.11219        -0.120425      0.289781     -0.550139
O	      7.64963      8.82172    -10.11180        -0.015407     -0.386028     -0.083554
O	      7.70677      2.21171     -3.98500         0.001866      0.877329      0.106648
O	      9.60949      4.35917     -8.22790        -0.121623      0.287489     -0.550279
O	     11.54424      6.58009    -12.22748        -0.014374     -0.386476     -0.083822
O	      5.71531      8.81687      0.26787         0.003095      0.879282      0.105762
O	      7.61721     10.96399     -3.97537        -0.120375      0.286800     -0.551291
O	      9.55262     13.18465     -7.97507        -0.013583     -0.387596     -0.080606
O	      9.61101      6.57488     -1.84781         0.002205      0.876518      0.105080
O	     11.51387      8.72191     -6.09071        -0.122116      0.288556     -0.552634
O	     13.44978     10.94280    -10.09035        -0.015832     -0.387216     -0.080842
