# total energy = -103.02214667 eV
 
CRYSTAL
PRIMVEC
0.000007 2.105605 2.105629 
8.094164 -2.118341 2.118450 
0.002222 4.241914 -4.241966 
PRIMCOORD
16 1
Li	      0.05189      0.10405     -0.10321         0.010476      0.008002     -0.008643
Li	      1.98643      2.10335      0.00141         0.018760     -0.009743      0.010158
Li	      4.00000      2.08630     -2.08591        -0.000926     -0.022299      0.022722
Li	      4.00608      0.03276     -0.03188        -0.004074      0.015247     -0.015754
Ti	      2.13308      4.25409     -2.14452         0.295968      0.048294     -0.049705
Ti	      6.01112      2.13410     -0.02734        -0.475130      0.042563     -0.043157
Ni	      6.03917     -0.01555      2.12124        -0.117828     -0.030373      0.030445
Ni	      0.03825      2.07085     -2.07085         0.027402     -0.014975      0.014807
O	      4.19347      2.11229     -0.00663         0.434606      0.003993     -0.003224
O	      4.00161      4.23293     -2.12650        -0.349269      0.002764     -0.003061
O	      6.05146      2.17678      2.03449        -0.080472      0.113546     -0.113118
O	      6.08553      2.04197     -2.04185         0.003354     -0.138623      0.139194
O	      8.01128      0.02658      2.07916         0.127799     -0.091681      0.092117
O	      2.05604      4.32542     -0.11527         0.107646      0.087926     -0.087184
O	      8.09136      2.06789      0.03763        -0.002176      0.095439     -0.094724
O	      2.02543      1.98996      2.22117         0.003865     -0.110079      0.109127
