# total energy = -98.70464292 eV
 
CRYSTAL
PRIMVEC
0.000040 2.083772 2.083880 
8.227863 2.062385 -2.062332 
-0.052599 4.228689 -4.228876 
PRIMCOORD
12 1
Ti	      6.24946      4.16006     -2.07986         5.694364     -1.725999      1.726689
Ti	      1.86886      4.19514     -2.11399        -1.875338     -1.371511      1.371145
Ti	      4.14744      6.30918     -2.14452        -6.356231      0.397999     -0.397852
Ti	      6.15279      6.25604     -4.17530         4.160607      2.356854     -2.356498
O	      4.05631      4.22372     -2.14304         1.398039      1.709455     -1.708928
O	      6.27324      6.25666     -2.09240        -2.050418      0.226815     -0.224944
O	      4.05532      6.27815     -4.19718         2.914821     -2.112520      2.109725
O	      6.13616      4.14770      0.01672        -0.428538     -0.402831      0.400982
O	      8.11483      4.14293     -2.06299        -4.382422      0.094079     -0.093242
O	      2.01961      4.28317     -0.11865        -0.061762      1.796010     -1.794589
O	     -0.01771      4.22976     -2.14909        -2.117241     -0.097119      0.097634
O	      2.07001      6.24556     -2.08072         3.104120     -0.871233      0.869879
