# total energy = -592.89264387 eV
 
CRYSTAL
PRIMVEC
12.201779 -0.002116 0.005800 
0.001286 8.142484 0.016263 
4.070058 4.055426 8.457401 
PRIMCOORD
69 1
Ti	      2.00859      2.01986      2.09121        -0.279394     -0.156476     -1.988898
Ti	      4.08016      4.04025      6.34844         0.190871     -0.387545      0.308761
Ti	      2.00827      6.07574      2.09884         0.013768      0.194595     -1.902536
Ti	      4.08486      8.09042      6.36202        -0.513411      0.535530     -0.118358
Ti	      6.06464      2.02385      2.12759         0.678714     -0.171295     -0.199976
Ti	      8.09562      4.03954      6.33065         0.100680     -0.052053      0.401105
Ti	      6.06583      6.07028      2.13520         0.671843      0.225693     -0.407263
Ti	      8.10188      8.09078      6.30744         0.110847      0.227814      1.021876
Ti	     10.12765      1.99247      2.12191        -0.255392      0.178311     -1.010134
Ti	     12.12518      4.03908      6.33740        -0.032735     -0.134804      2.379931
Ti	     10.12847      6.10019      2.12835        -0.446075     -0.095665     -1.266688
Ti	     12.10060      8.08944      6.36408         0.712172      0.194235     -0.130398
Ti	      4.05989      6.05623      8.41871        -0.689924      0.152696      0.464740
Ti	      2.11467      4.04523      4.18153         2.310944      0.004754      0.302761
Ti	      0.01004      6.08398      0.01313        -0.845231     -0.209881     -0.232722
Ti	      2.02735      8.09591      4.19533        -0.350701      0.021338      1.076257
Ti	      4.03888      2.02277      0.01572         0.273087      0.034891     -0.403247
Ti	      6.09887      4.04389      4.22324         0.335766      0.005372     -0.045678
Ti	      4.03928      6.08085      0.02265         0.361798      0.140323     -0.524029
Ti	      6.11188      8.09584      4.22982        -0.378746      0.201668     -0.573518
Ti	     12.13673      6.03252      8.40882         0.534265      0.448591      0.805159
Ti	     10.05046      4.04469      4.18919        -2.239428     -0.154746     -0.369383
Ti	     12.13862     10.14054      8.41624         0.632409     -0.370466      0.620139
Ti	     10.09198      8.09468      4.21420         0.590770      0.046005      0.023510
O	      6.07501      6.06293      8.41231        -0.159221      0.057234      2.710004
O	      4.03140      4.04468      4.26582        -1.061447     -0.035753      1.562548
O	      6.07644     10.11138      8.42007        -0.165552      0.054415      2.737070
O	      4.00681      8.09528      4.27420        -0.353175     -0.025766      1.745554
O	      6.07280      2.01876      0.02953        -0.335773     -0.109627      2.062048
O	      8.08663      4.04458      4.23825         0.330856     -0.046312      2.096638
O	      6.07302      6.08364      0.03791        -0.362064     -0.081594      2.044623
O	      8.10276      8.09517      4.19993         0.174386      0.003571      2.371833
O	     10.11189      2.02251      0.01539         0.218536     -0.160720      2.163431
O	     10.11249      6.07950      0.02158         0.101279     -0.008742      2.280337
O	     12.19080      8.09450      4.27018         0.054887      0.014964      1.546247
O	      4.05057      2.02802      2.11426        -0.814413     -0.037465     -1.941532
O	      6.06971      4.03977      6.33388        -0.228824     -0.052787     -2.043980
O	      4.05157      6.06640      2.12131        -0.836090     -0.079956     -1.969170
O	      6.06284      8.09018      6.33122         0.052605     -0.036631     -2.267044
O	      8.09666      2.02864      2.09621        -0.144140     -0.152575     -2.067819
O	     10.13899      4.03961      6.29732         0.345258     -0.032510     -2.059213
O	      8.09656      6.06496      2.10338        -0.137331     -0.000362     -2.053905
O	     10.13255      8.09045      6.32841        -0.543033      0.003426     -2.461454
O	     12.12871      2.01759      2.12015         0.936391      0.014075     -1.751565
O	     14.14881      4.03971      6.21764        -0.414668     -0.023592     -2.515427
O	     12.13010      6.07437      2.12930         0.963176     -0.123335     -1.794669
O	     14.16746      8.08982      6.23239         0.483473     -0.038657     -2.282914
O	     12.14039      8.10086      0.02765         0.222637      0.229517     -2.547703
O	     12.13527      4.05096      0.01684         0.292029     -0.240532     -2.513784
O	      4.04248      8.10306      0.02884        -0.058033     -0.035701     -2.467849
O	      6.08562     10.11711      4.23928        -0.144856      0.282046     -2.286056
O	      8.09005      8.08629      8.42106         0.069488     -0.101699     -2.120069
O	      6.08427      6.07323      4.23015        -0.144830     -0.237096     -2.170960
O	      8.10158      8.10196      0.03866        -0.174576      0.181511     -2.933429
O	     10.11389      2.03829      4.20543         0.393014     -0.028822     -2.138108
O	     12.15371      8.08633      8.40886        -0.071214      0.028885     -2.203522
O	     10.11375      6.05043      4.21304         0.407909      0.034494     -2.038256
O	      1.99545      4.04728      2.17869        -0.244764     -0.097152      1.894891
O	      4.04306      6.06486      6.32619        -0.132378     -0.281805      2.309729
O	      2.02284      8.09819      2.16148        -0.092344      0.049842      2.041128
O	      4.04367     10.11762      6.33490        -0.099950      0.319491      2.246655
O	      6.06553      4.04723      2.13088        -0.066540     -0.171418      2.466858
O	      8.10436      6.06903      6.32852         0.012580     -0.154953      2.299243
O	      6.06181      8.09775      2.14206        -0.005625      0.081868      2.501635
O	      8.10441     10.11250      6.33555         0.010760      0.148010      2.340814
O	     10.14977      4.04661      2.15925         0.163737     -0.089278      2.644802
O	     12.14149      6.08262      6.33153         0.059220     -0.939065      1.784519
O	     10.13177      8.09725      2.11418        -0.050959      0.164163      2.702492
O	     12.14191     10.09749      6.33852         0.062683      0.877508      1.843916
