# total energy = -464.70788043 eV
 
CRYSTAL
PRIMVEC
4.314898 8.615749 4.293551 
8.739703 -4.363608 -4.302691 
4.361182 4.246034 -8.512671 
PRIMCOORD
69 1
Mn	      8.81131      4.27467     -4.28397         0.227920     -0.113375      0.475757
Mn	      6.75962      2.20169     -0.12385         0.715086     -0.445320      1.410926
Mn	      4.54173      6.48659     -2.19084        -0.078932      0.359108      0.779640
Mn	      2.27732      4.43433      2.05554         0.234243     -0.971584      1.058072
Mn	      6.69597      0.04090     -6.39472         0.000812     -1.010793      0.036143
Mn	      4.40823     -2.13225     -2.13880        -0.395254     -0.694522     -1.033131
Mn	      2.26839      2.17266     -4.36338        -0.223931      1.974702     -0.954097
Mn	      0.12033      0.16009     -0.03561        -0.628006     -3.621084      0.831860
Mn	      2.11700      2.16986      0.07253        -0.324094      0.464550      1.856309
Mn	      4.38458      4.39825     -4.32019         0.768779     -0.399985     -0.296311
Mn	      6.61450     -0.04942     -2.17535         0.158134      0.736881     -0.009398
Mn	      8.84619      2.11301     -6.47119         0.246998      0.273011      0.087451
Mn	      4.45616      6.50944      2.17620         0.451180     -0.248648      0.115064
Mn	      6.61294      8.70318     -2.26461         0.652514     -0.956091     -1.575450
Mn	      8.83568      4.30546     -0.00584         0.198701      0.647904     -0.140526
Mn	     11.05554      6.48136     -4.28374        -0.169751     -0.293889      0.029451
Mn	      2.25468     -0.02838     -2.10857         1.133718     -2.257974      1.167114
Mn	      4.41137      2.15663     -6.49043        -0.073188      0.513467     -0.397879
Mn	      6.72617     -2.11728     -4.28827        -0.560008     -0.544391     -2.458202
Mn	      8.90357     -0.03522     -8.67698        -0.091769      0.851720     -0.022007
Mn	      4.46889      4.41967     -0.00407         0.511107      1.583922     -0.854552
Mn	      6.65647      6.51008     -4.34413        -0.046626      0.080131     -0.693364
Mn	      8.89376      2.13164     -2.19554         0.088166      0.623884     -1.198304
Mn	     11.03891      4.32354     -6.52243        -0.290141      0.151653     -0.286646
O	      4.32734     -0.19549     -2.30557        -0.816436     -0.540220      0.140922
O	      6.78624      1.93921     -6.48276         0.041662     -0.828884      0.145670
O	      8.87353     -2.43938     -4.39615        -0.206259      1.466935     -0.157734
O	     11.21355     -0.07741     -8.65375        -0.721051     -1.354104      0.328027
O	      6.71882      4.15365     -0.00372        -0.269676     -1.197152     -0.248334
O	      8.98396      6.31328     -4.28419        -0.311971     -1.453479     -0.044981
O	     11.25903      2.01049     -2.20028        -0.457806     -1.073994     -0.138698
O	     13.43768      4.15721     -6.52939        -0.444554     -1.414176      0.322887
O	      6.48624      2.10447     -1.98428         1.268930     -1.539991      0.443465
O	      8.76384      4.13749     -6.31497         1.460473     -0.994574      1.029430
O	     11.11495     -0.18490     -4.22717         1.364755     -1.142224      0.724078
O	     13.22306      2.01366     -8.55576         1.368031     -0.810641      1.362932
O	      8.69658      6.34551      0.12633         1.612700     -1.251699      0.947252
O	     10.97146      8.50005     -4.13624         1.626985     -1.186415      0.988137
O	     13.33831      4.17059     -2.06526         1.144046     -0.440542      0.625937
O	     15.38515      6.23179     -6.44618         1.198292     -0.342874      1.052309
O	      4.39358      2.30899     -4.44111        -1.632851      0.937135     -0.858588
O	      6.77392      4.45105     -8.61982        -1.568628      1.698474     -1.157454
O	      8.97038      0.09281     -6.63409        -1.658663      1.215224     -0.945526
O	     11.08385      2.12549    -10.98633        -1.469548      1.655974      0.926221
O	      6.70403      6.68578     -2.29602        -1.597333      0.761204     -1.196728
O	      8.91831      8.76291     -6.52450        -1.729273      0.840033     -1.170236
O	     11.12677      4.46472     -4.46592        -1.461013      1.047014     -1.213136
O	     13.33134      6.56622     -8.78976        -1.679008      0.800100     -0.198856
O	      6.45961      4.48313     -4.31607         0.068007      1.421667     -0.035467
O	      8.83957      0.13522     -2.18239         0.448617      1.483277     -0.100061
O	     10.91311      2.29513     -6.47607         0.034675      1.457549     -0.067099
O	      6.46672      6.52245      2.16760         0.315961      1.555528     -0.435554
O	      8.64349      8.85898     -2.05776        -0.077611      0.916651     -0.164626
O	     10.89566      4.43458     -0.01956         0.204322      1.574865     -0.135004
O	     13.18572      6.64302     -4.25235         0.647463      0.732063     -0.064604
O	      4.40862      4.18139     -6.58945         0.188006     -1.064379      0.337564
O	      6.64600     -0.15670     -4.44057         0.218068     -0.874471      0.668369
O	      8.85197      1.99832     -8.80849         0.169108     -1.288440      0.974370
O	      4.50361      6.60400     -0.11595         0.042165     -1.390794     -0.450259
O	      6.68497      8.54990     -4.44813        -0.018087     -1.480846     -0.260076
O	      8.86443      4.17189     -2.28000        -0.027033     -1.276068     -0.209203
O	     11.01260      6.35239     -6.62424         0.029616     -1.524990     -0.275636
O	      4.37248      4.49695     -2.08293         0.288847      1.143608      0.601095
O	      6.70122      6.60754     -6.36663        -0.069900      1.391760      0.010653
O	      8.80705      2.23928     -4.20230         0.020392      1.403855      0.171430
O	     10.92676      4.43702     -8.55819         0.114901      1.248628      0.069909
O	      8.82509     10.98750     -4.15508         0.011069      0.943765     -0.227053
O	     10.99252      6.61810     -2.01199         0.025251      1.233171     -0.032344
O	     13.21886      8.74485     -6.33838        -0.201300      0.839199     -0.011321
