# total energy = -589.38469602 eV
 
CRYSTAL
PRIMVEC
11.895201 -0.002063 0.005655 
0.001254 7.937899 0.015854 
3.967795 3.953531 8.244903 
PRIMCOORD
69 1
Ti	      1.90893      1.91963      1.98745        -1.855441     -0.953354     -1.729390
Ti	      3.87770      3.83978      6.03343        -0.190524     -2.296696      1.816586
Ti	      1.90861      5.77426      1.99470        -0.487465      0.712538     -1.503386
Ti	      3.88217      7.68898      6.04634        -0.955167      3.258592      1.532654
Ti	      5.76371      1.92342      2.02201         2.726323     -1.516071      0.742793
Ti	      7.69392      3.83910      6.01653         0.417284     -0.406517      1.622061
Ti	      5.76485      5.76907      2.02924         2.728200      1.436355     -0.655146
Ti	      7.69987      7.68932      5.99446         0.379678      1.541651      1.498026
Ti	      9.62512      1.89361      2.01662         0.845307     -0.636955     -2.640113
Ti	     11.52353      3.83867      6.02293         1.056973     -1.064245      2.683140
Ti	      9.62589      5.79750      2.02274        -0.308743      0.409499     -4.202811
Ti	     11.50016      7.68803      6.04829         1.986539      1.182844     -1.927946
Ti	      3.85845      5.75572      8.00097        -1.603341      0.364031      4.013720
Ti	      2.00974      3.84450      3.97403         0.336455     -0.009200      1.523252
Ti	      0.00955      5.78208      0.01247        -3.540448     -0.643417     -0.214951
Ti	      1.92676      7.69419      3.98716        -2.214078      0.219778      2.009496
Ti	      3.83846      1.92240      0.01494        -0.882464     -1.079830     -1.676245
Ti	      5.79626      3.84323      4.01369         0.605601     -0.236425      0.225603
Ti	      3.83885      5.77911      0.02152        -0.361166      1.296279     -2.440074
Ti	      5.80861      7.69412      4.01993        -0.135706      1.505332     -1.822757
Ti	     11.53450      5.73318      7.99157         3.843730     -0.437646      2.685258
Ti	      9.55175      3.84399      3.98133        -1.054711     -0.939475     -1.082175
Ti	     11.53631      9.63736      7.99862         4.243232      0.741592      1.397107
Ti	      9.59121      7.69303      4.00509         2.252387      0.770430     -1.467196
O	      5.77358      5.76208      7.99488        -0.383968      0.006675      2.936548
O	      3.83137      3.84399      4.05415        -1.135508     -0.224861      1.005404
O	      5.77493      9.60965      8.00226         0.732978      0.534083      3.071832
O	      3.80799      7.69359      4.06212        -1.251525     -0.106542      1.256006
O	      5.77147      1.91859      0.02807        -1.987703     -0.589827      0.902424
O	      7.68537      3.84389      4.02795        -0.188171     -0.297087      1.642163
O	      5.77167      5.78177      0.03603        -2.098915     -0.424381      0.747986
O	      7.70070      7.69349      3.99154        -0.112684      0.068237      1.805866
O	      9.61014      1.92216      0.01463        -0.108993     -0.628649      0.819713
O	      9.61070      5.77784      0.02051        -0.754764     -0.324609      1.217606
O	     11.58590      7.69285      4.05829         0.188236      0.122600      0.901761
O	      3.84958      1.92739      2.00935        -1.879281     -0.354501     -1.378501
O	      5.76853      3.83932      6.01959        -0.994297     -0.459943     -0.786008
O	      3.85052      5.76539      2.01605        -1.894854     -0.453485     -1.548228
O	      5.76200      7.68874      6.01706        -0.818143     -0.267283     -1.235583
O	      7.69491      1.92798      1.99220        -1.355618     -0.481161     -1.722790
O	      9.63590      3.83917      5.98485         0.431396     -0.251571     -0.565933
O	      7.69481      5.76401      1.99900        -1.287576     -0.440569     -1.593621
O	      9.62977      7.68901      6.01440        -1.021695     -0.018180     -1.519444
O	     11.52689      1.91747      2.01495         2.660244     -0.328220     -1.472536
O	     13.44674      3.83926      5.90913         0.626229     -0.162421     -2.789384
O	     11.52821      5.77296      2.02364         3.333581     -0.341729     -1.689358
O	     13.46448      7.68841      5.92315         2.360979     -0.197111     -2.414489
O	     11.53798      7.69890      0.02628         1.196786      1.505685     -3.408503
O	     11.53311      3.84995      0.01600         1.303403     -1.423586     -3.259767
O	      3.84191      7.70099      0.02741        -0.378413     -0.166646     -2.457614
O	      5.78367      9.61510      4.02893        -0.332941      1.643657     -1.954031
O	      7.68862      7.68505      8.00322         0.371939      0.311521     -0.220966
O	      5.78236      5.77188      4.02025        -0.375398     -1.134129     -1.227623
O	      7.69959      7.69994      0.03675        -0.877455      1.067347     -4.149665
O	      9.61203      1.93715      3.99676         0.419037     -0.473782     -1.078441
O	     11.55065      7.68509      7.99161         0.054406      0.232249     -0.896082
O	      9.61190      5.75021      4.00399         0.471661      0.321785     -0.605971
O	      1.89644      3.84645      2.07058        -0.707767     -0.529660      0.356690
O	      3.84244      5.76392      6.01229        -0.836571     -1.036368      1.710718
O	      1.92248      7.69636      2.05423        -0.589631      0.671951      1.146776
O	      3.84302      9.61559      6.02056        -0.547761      1.077073      1.686726
O	      5.76457      3.84640      2.02514        -0.326455     -1.035864      1.743224
O	      7.70221      5.76789      6.01449         0.247504     -1.266109      2.204128
O	      5.76101      7.69594      2.03576        -0.252712      0.744461      1.881107
O	      7.70227      9.61072      6.02119         0.239771      1.183662      2.299888
O	      9.64613      3.84582      2.05211         0.083603     -0.568651      2.057273
O	     11.53902      5.78081      6.01736         0.070440     -2.392756      1.571901
O	      9.62903      7.69546      2.00928        -0.206076      1.390815      2.685730
O	     11.53943      9.59645      6.02401         0.080228      2.278791      1.935563
