# total energy = -102.69326461 eV
 
CRYSTAL
PRIMVEC
-0.000017 2.127637 2.128790 
4.056963 -4.239602 4.241824 
4.067393 4.244895 -4.247216 
PRIMCOORD
16 1
Li	      0.09800      0.04262     -0.04248         0.013188      0.005702     -0.005336
Li	      1.96517      1.96892      0.16185        -0.039856      0.005288     -0.007787
Li	      4.01957      2.05522     -2.05625        -0.023059      0.012327     -0.012575
Li	      4.09208     -2.10762      2.10912         0.015906     -0.007484      0.006790
Ti	      6.16803      2.19969     -0.07367         0.340412      0.120169     -0.122693
Ti	      6.16899     -0.05055      2.17872         0.297772     -0.215039      0.215508
Ni	      1.97218      0.07667      2.05160        -0.038133     -0.081695      0.082744
Ni	      4.00773      0.02490     -0.02446        -0.039361      0.012911     -0.013343
O	      4.19142      2.09355      0.03549         0.113040      0.094285     -0.095550
O	      4.15684      0.05710      2.07119         0.124769     -0.090138      0.090787
O	      6.12153      0.03324     -0.03246         0.103846      0.002442     -0.002098
O	      3.92925     -2.09911      4.22994        -0.379384      0.001516     -0.001589
O	      6.07922      0.16582      4.09031         0.013321      0.175894     -0.174674
O	      3.95758      4.24147     -2.11539        -0.397014     -0.009774      0.010587
O	      2.02015     -0.05836      0.05889        -0.112266      0.111981     -0.112053
O	      6.08057      2.04469     -2.04493         0.006819     -0.138386      0.141281
