# total energy = -468.20446657 eV
 
CRYSTAL
PRIMVEC
4.228215 8.504160 4.229571 
8.604173 -4.325918 -4.240926 
4.287292 4.175946 -8.369657 
PRIMCOORD
69 1
Mn	      8.55241      4.16474     -4.16806         0.081015     -0.025234      0.625261
Mn	     10.68329      6.26274     -8.36541         0.053955     -0.097970      0.669207
Mn	      4.26419      6.33466     -2.04116         0.043523      0.041021      0.547579
Mn	     14.99036      4.09122    -10.47945        -0.062009     -0.137166      0.609155
Mn	     10.59325      8.43244     -2.14439        -0.151303      0.199374     -0.712363
Mn	     12.78731     10.46720     -6.26720        -0.070313     -0.250149      0.401218
Mn	     14.89066      6.29617     -4.22209        -0.281720      1.818983     -1.260501
Mn	      8.53027     12.62293     -4.12649         0.349441      0.058444      0.465944
Mn	      2.11774      2.10464      0.10907         0.008954      0.063515      1.357852
Mn	      4.21749      4.25718     -4.15867         0.275596     -0.128385     -0.003249
Mn	      6.40415     -0.05970     -1.98928         0.150554      0.017495      1.003138
Mn	      8.52749      2.07474     -6.27583         0.234231     -0.157965     -0.038608
Mn	      4.29279      6.30498      2.10343        -0.197922     -0.029768      0.018813
Mn	      6.41940      8.43491     -2.11191         0.091129     -0.174777     -1.664378
Mn	      8.59828      4.12516      0.00448        -0.263290      0.199745      0.011371
Mn	     10.70529      6.28987     -4.19769         0.140224     -0.298177     -0.374089
Mn	      6.40886      8.40462      2.11016         0.402306     -1.705603      1.552619
Mn	      4.29950      2.08979     -6.27512        -0.079822     -0.081388     -0.369477
Mn	     10.73314      6.20278      0.00904         0.174863     -1.114000     -0.414701
Mn	      8.62323     -0.06106     -8.41063        -0.006637      0.233460     -0.401419
Mn	      4.26499      4.22845     -0.02247        -0.194353     -0.076052     -0.576751
Mn	      6.44691      6.32714     -4.17855        -0.108778      0.059108     -0.563021
Mn	      8.58518      2.06651     -2.13742         0.006789      0.142132     -0.596810
Mn	     10.72846      4.16881     -6.30857        -0.153480      0.093461     -0.508477
O	      4.23103     -0.20409     -2.25230        -0.323925     -1.137149     -0.145076
O	      6.54451      1.97078     -6.19179        -0.744325     -2.011691     -0.071524
O	      8.71835     -2.37213     -4.29267        -0.501372     -1.293437     -0.092942
O	     10.85516     -0.12362     -8.34207        -0.708246     -1.486976      0.168654
O	      6.58053      4.04653     -0.00760        -0.368519     -1.217245      0.006117
O	      8.68392      6.13172     -4.21035        -0.455135     -1.254057      0.081098
O	     10.89970      1.88043     -2.14907        -0.422183     -1.157389      0.059833
O	     13.03097      3.97221     -6.26552        -0.137137     -1.277304      0.200347
O	      6.35091      2.02514     -1.98470         1.650900     -1.619986      0.946666
O	      8.48457      4.04477     -6.13785         1.611696     -0.767503      0.738131
O	     10.67425     -0.24495     -4.12596         1.596029     -0.721643      0.978355
O	     12.80545      1.90832     -8.25501         1.609461     -0.875136      0.777340
O	      8.51575      6.13151      0.13201         1.749533     -0.834364      0.880795
O	     10.61708      8.23553     -4.21957         1.740126     -0.633090      1.328024
O	     12.90442      4.00329     -2.01253         1.822655     -0.817145      0.748853
O	     14.92250      6.02252     -6.27505         1.645689     -0.529754      1.400034
O	      4.24736      2.24105     -4.25828        -1.850232      0.717810     -0.883617
O	      6.49039      4.36244     -8.38445        -1.704286      0.619978     -1.379864
O	      8.60847      0.09005     -6.39917        -1.837736      0.780643     -1.002571
O	     10.78223      2.09799    -10.57557        -1.748446      1.357418     -1.460102
O	      6.51524      6.47083     -2.19059        -1.684869      0.733604     -0.791220
O	      8.60654      8.50071     -6.42698        -1.639110      0.877975     -0.668541
O	     10.79554      4.30708     -4.31677        -1.664013      0.855477     -0.901590
O	     12.91055      6.33243     -8.52691        -1.611216      0.859657     -0.786897
O	      4.11266      2.24995     -0.04582         0.253866      1.344606     -0.128892
O	      6.24006      4.36006     -4.15123         0.380910      1.203599     -0.038569
O	      8.51913      0.11655     -2.17810        -0.159242      1.108240     -0.017090
O	     10.55137      2.20525     -6.26346         0.391092      1.167015     -0.087632
O	      6.25813      6.32806      2.07528         0.653092      1.544032     -0.260274
O	      8.42744      8.60810     -1.92710         0.655409      1.203765      0.155214
O	     10.57251      4.12928     -0.00418         0.498102      1.399811     -0.031844
O	     12.78986      6.44248     -4.11242         0.903056      1.058447      0.200480
O	      4.26284      4.04754     -6.38801         0.015989     -1.070797      0.084078
O	      8.54785      1.91408     -8.52560         0.061467     -1.241558      0.113018
O	      4.31561      6.22481     -0.09812        -0.020551     -1.165102      0.250623
O	      6.48486      8.29516     -4.27522        -0.010155     -1.105471     -0.154472
O	      8.59976      4.05604     -2.21940        -0.032773     -1.224197      0.166094
O	     10.75805      6.13127     -6.40743         0.015874     -1.081388      0.186360
O	      4.20429      4.34937     -1.96190         0.054980      1.115963     -0.306855
O	      6.36050      6.43865     -6.13260         0.030406      1.206289     -0.024348
O	      8.52383      2.18013     -4.08424         0.011615      1.187370     -0.304819
O	     10.64454      4.27290     -8.26582         0.042959      1.209361     -0.104467
O	      8.58635     10.64886     -4.02199        -0.090274      1.222148     -0.024630
O	     10.65951      6.39093     -1.99087        -0.034398      1.834133      0.479428
O	     12.87260      8.48423     -6.14017        -0.089717      1.264933     -0.060019
