# total energy = -457.85761055 eV
 
CRYSTAL
PRIMVEC
4.378665 8.743076 4.357002 
8.868861 -4.428094 -4.366278 
4.425633 4.308784 -8.638474 
PRIMCOORD
69 1
Mn	      9.07368      4.40196     -4.41153         0.275447     -0.210468      0.341241
Mn	      7.02629      2.33092     -0.25521         0.222164     -0.517499      1.925681
Mn	      4.80803      6.61430     -2.32061        -0.270032      0.553680      1.091672
Mn	      2.41053      4.63004      1.98910         0.280242     -2.033144      1.223199
Mn	      6.96005      0.17133     -6.52073        -0.130506     -2.044771     -0.218330
Mn	      4.60420     -2.06652     -2.13809        -0.905049     -0.597708     -3.200354
Mn	      2.46700      2.17192     -4.55783        -0.287624      2.522307     -0.299304
Mn	      0.25403      0.35775     -0.09994        -1.090305    -11.994486      1.550928
Mn	      2.18003      2.23447      0.07470         1.272130      0.928485      1.736007
Mn	      4.51513      4.52921     -4.44882         1.438204     -0.532559     -0.491509
Mn	      6.81145     -0.05089     -2.24012         0.452315      1.247874      0.028431
Mn	      9.10959      2.17593     -6.66388         0.450400      0.519289      0.157302
Mn	      4.58883      6.70326      2.24100         1.276616     -0.697790      0.082461
Mn	      6.80984      8.96232     -2.33203         1.251288     -1.896669     -1.955691
Mn	      9.09877      4.43366     -0.00602         0.358272      0.934119     -0.244405
Mn	     11.38472      6.67435     -4.41128        -0.423855     -0.487399      0.076803
Mn	      2.32181     -0.02924     -2.17136         2.451680     -2.268837      1.205890
Mn	      4.54272      2.22085     -6.68369         0.452418      1.290096     -0.473178
Mn	      6.99116     -2.05111     -4.35157        -1.248316     -0.817566     -5.247135
Mn	      9.16868     -0.03627     -8.93534         0.073605      1.479845      0.334575
Mn	      4.60195      4.55126     -0.00419         0.689683      1.649005     -1.286340
Mn	      6.85467      6.70391     -4.47347         0.044658      0.009960     -0.839653
Mn	      9.15857      2.19511     -2.26091        -0.044873      0.883478     -1.777187
Mn	     11.36760      4.45229     -6.71663        -0.384801      0.211811     -0.219247
O	      4.45618     -0.20131     -2.37422        -0.743528     -0.271930      0.123274
O	      6.98829      1.99695     -6.67578         0.440765     -0.245291      0.287824
O	      9.13773     -2.51201     -4.52704        -0.500988      8.911578     -0.579192
O	     11.54743     -0.07972     -8.91142        -1.017115     -1.186888      0.343585
O	      6.91888      4.27732     -0.00383        -0.036642     -1.327001     -0.472389
O	      9.25145      6.50127     -4.41176        -0.108839     -1.573184     -0.051421
O	     11.59427      2.07036     -2.26579        -0.838798     -0.429793     -0.326404
O	     13.83778      4.28099     -6.72381        -0.853906     -1.300654      0.352886
O	      6.67936      2.16713     -2.04336         1.077842     -1.302244      0.084135
O	      9.02478      4.26068     -6.50300         1.386273     -1.269902      1.277099
O	      2.57704      4.23770      0.01324         0.951723     -0.813678      0.880919
O	     13.61677      2.07362     -8.81050         0.981199     -0.712004      1.643706
O	      8.95552      6.53445      0.13009         1.459583     -1.404260      0.922785
O	     11.29814      8.75315     -4.25940         1.568519     -1.601759      1.024587
O	      4.86659      8.72287      2.23953        -0.185691     -0.062482      0.388139
O	     15.84324      6.41733     -6.63812         0.352177     -0.241112      0.822519
O	      4.52439      2.37773     -4.57335        -1.291787      0.921294     -1.045865
O	      6.97561      4.58359     -8.87647        -1.520474      1.848480     -0.842454
O	      9.23747      0.09556     -6.83163        -1.621257      1.622843     -0.979746
O	      6.98824     -2.12001     -2.67498        -0.964696      1.498822      3.614057
O	      6.90364      6.88485     -2.36438        -1.446623      0.851038     -1.339965
O	      9.18385      9.02382     -6.71877        -1.642860      0.740350     -0.659164
O	     11.45807      4.59766     -4.59890        -1.377955      1.315216     -1.357934
O	      9.30265      2.45295     -0.41300        -1.750249      0.693448      0.425330
O	      6.65194      4.61662     -4.44458        -0.112521      1.447530     -0.005006
O	      9.10277      0.13925     -2.24738         0.548188      1.815365     -0.192437
O	     11.23805      2.36347     -6.66890        -0.229935      1.612840     -0.029227
O	      6.65926      6.71666      2.23214        -0.318481      1.504506     -0.606380
O	      8.90085      9.12276     -2.11903        -0.452266      0.399251     -0.322354
O	     11.22008      4.56662     -0.02014         0.150269      1.620349     -0.294364
O	     13.57833      6.84082     -4.37897         0.316244      0.103080     -0.302449
O	      4.53989      4.30589     -6.78566         0.297288     -0.948934      0.215986
O	      6.84389     -0.16136     -4.57279         0.344589     -0.170960      0.804015
O	      9.11554      2.05782     -9.07076         0.401332     -1.435257      2.861070
O	      4.63771      6.80063     -0.11939         0.142768     -1.412568     -0.580784
O	      6.88401      8.80448     -4.58057         0.000155     -1.651440     -0.393990
O	      9.12836      4.29610     -2.34789        -0.059123     -1.333518     -0.514371
O	     11.34049      6.54153     -6.82147         0.083974     -1.727734     -0.362974
O	      4.50267      4.63086     -2.14494         0.562824      1.308201      0.600068
O	      6.90074      6.80429     -6.55619        -0.101830      1.328210      0.273392
O	      9.06928      2.30596     -4.32743         0.032360      1.503054      0.425295
O	     11.25211      4.56914     -8.81301         0.124967      1.235522      0.363103
O	      9.08786     11.31466     -4.27880        -0.033094      0.548682     -0.177351
O	     11.31983      6.81515     -2.07190         0.090265      1.141742      0.032710
O	     13.61245      9.00523     -6.52711        -0.308406      0.320135      0.167880
