# total energy = -579.19584302 eV
 
CRYSTAL
PRIMVEC
12.569672 -0.002180 0.005975 
0.001325 8.387986 0.016753 
4.192773 4.177700 8.712398 
PRIMCOORD
69 1
Ti	      2.13155      2.14350      2.21922         2.977446      0.000664     -3.132121
Ti	      4.32992      4.28756      6.73703         1.205940      2.021794     -0.576808
Ti	      2.13119      6.44764      2.22731         1.698132      0.044137     -3.761432
Ti	      4.33490      8.58564      6.75144         0.536108     -2.346166     -1.331112
Ti	      6.43586      2.14772      2.25782        -1.194181      0.734279     -1.583692
Ti	      8.59116      4.28680      6.71816        -0.481226      0.486201     -0.823249
Ti	      6.43713      6.44184      2.26589        -1.082682     -1.058728     -0.667210
Ti	      8.59780      8.58603      6.69352        -0.068826     -1.090694      0.297395
Ti	     10.74757      2.11444      2.25180        -1.105907      0.450573      0.273629
Ti	     12.86738      4.28632      6.72531        -1.274462      0.424485      2.273308
Ti	     10.74844      6.47359      2.25863        -0.674932     -0.768109      1.269106
Ti	     12.84128      8.58460      6.75363        -0.983739     -0.983150      1.687681
Ti	      0.11563      2.24924      0.22163         0.263357     -0.110141     -3.137811
Ti	      2.24411      4.29284      4.43748         4.143233     -0.102676     -1.029715
Ti	      0.01067      6.45637      0.01393         1.453544      0.321110      0.278171
Ti	      2.15145      8.59146      4.45213         3.233474     -0.125216     -0.011816
Ti	      4.28609      2.14658      0.01668         0.816800      0.668134      1.157980
Ti	      6.47219      4.29141      4.48175         0.029373     -0.048004     -0.067176
Ti	      4.28653      6.45306      0.02403         0.653598     -1.360336      2.308025
Ti	      6.48599      8.59139      4.48873        -0.491422     -1.041087      0.861328
Ti	      8.68685      2.22407      0.21112        -0.722962      0.806176     -0.320387
Ti	     10.66566      4.29227      4.44562        -3.513242      0.796528     -0.301755
Ti	      8.68886      6.58354      0.21900        -1.353651     -1.338773      0.616034
Ti	     10.70970      8.59017      4.47215        -1.213481     -0.172007      0.755257
O	      2.25411      2.25633      0.21483         0.060851     -0.168244      2.282622
O	      4.27817      4.29226      4.52694        -1.223415      0.128513      1.453760
O	      2.25561      6.55260      0.22307         0.375694     -0.536680      2.353305
O	      4.25206      8.59079      4.53583         0.691489      0.094979      1.729107
O	      6.44452      2.14233      0.03134         0.153381      0.413587      3.327997
O	      8.58162      4.29216      4.49768         1.038161      0.131106      2.211391
O	      6.44476      6.45602      0.04024         0.173316      0.394502      3.346316
O	      8.59873      8.59068      4.45701         0.054488     -0.028497      2.652277
O	     10.73084      2.14631      0.01634        -0.252881      0.407606      3.200258
O	     10.73147      6.45163      0.02290        -0.304232      0.286557      2.435661
O	     12.93702      8.58997      4.53156        -1.573892     -0.062138      1.897332
O	      4.29851      2.15216      2.24368         0.632096      0.260419     -1.959565
O	      6.44123      4.28705      6.72158         0.973744      0.217873     -3.158077
O	      4.29956      6.43774      2.25115         0.593672      0.304795     -1.852606
O	      6.43395      8.58538      6.71876         1.318409      0.219423     -3.127749
O	      8.59227      2.15282      2.22452         0.343741      0.245829     -2.463591
O	     10.75960      4.28687      6.68277         0.509231      0.140006     -3.155445
O	      8.59216      6.43620      2.23213         0.317959      0.559378     -2.331939
O	     10.75276      8.58568      6.71578         0.196190      0.001454     -2.728129
O	     12.87113      2.14108      2.24993        -2.017288      0.552519     -1.053236
O	     15.01486      4.28698      6.59823        -2.451650      0.179570     -2.436275
O	     12.87260      6.44619      2.25964        -1.527187      0.020887     -1.107870
O	     15.03467      8.58500      6.61388        -2.029567      0.192066     -1.969595
O	      0.31251      0.21091      0.00662        -1.064037     -0.807626     -1.563639
O	      0.30840      4.30110      0.01190        -0.986889      0.952517     -1.587383
O	      4.28862      0.21107      0.01386         0.271345     -0.226774     -2.280334
O	      6.45681      2.34840      4.48202        -0.005437     -0.683880     -2.225819
O	      4.39247      4.40356      0.22413        -0.411735      0.952531     -3.885383
O	      6.45669      6.44497      4.48908         0.024793      0.646992     -2.739700
O	      8.59616      0.20990      0.02427         0.603146     -0.774570     -1.762991
O	     10.73296      2.16306      4.46284         0.485313      0.217369     -2.087422
O	      8.70487      4.40360      0.21117        -0.072014     -0.098955     -3.439512
O	     10.73282      6.42079      4.47092         0.459070     -0.454830     -2.514874
O	      2.11760      4.29501      2.31205         0.041149      0.510018      4.074820
O	      4.29053      6.43609      6.71343         0.460141      0.372222      2.251077
O	      2.14666      8.59388      2.29378         0.401709     -0.373149      2.966223
O	      4.29118     10.73693      6.72266         0.382887     -0.957399      2.623461
O	      6.43681      4.29496      2.26131         0.203464      0.729597      2.858607
O	      8.60043      6.44052      6.71589        -0.320673      0.528897      2.301161
O	      6.43285      8.59341      2.27317         0.235466     -0.213647      2.755328
O	      8.60049     10.73150      6.72336        -0.270169     -0.763645      1.997972
O	     10.77105      4.29431      2.29142         0.315615      0.372159      2.894814
O	     12.88467      6.45495      6.71908         0.087322      0.454905      1.438604
O	     10.75194      8.59288      2.24359         0.135929     -0.699046      2.138878
O	     12.88513     10.71556      6.72651         0.121004      0.151812      1.206533
