# total energy = -77.11267543 eV
 
CRYSTAL
PRIMVEC
4.226509 0.000146 0.000154 
0.000154 4.191947 -4.192274 
-0.000295 6.156683 1.963234 
PRIMCOORD
12 1
Ti	      0.15566      2.18758     -2.00657        -0.263557      1.436663      1.443874
Ti	      0.15539      6.13222     -2.25404        -0.265039     -1.437098     -1.444207
Ni	      2.10996      6.10214     -0.00967        -0.091013      0.184684     -0.194714
Ni	      2.11010      8.37470     -2.28724        -0.092007     -0.185429      0.195805
O	      4.21255      2.06397     -0.03356         0.037120      0.000194     -0.001831
O	      2.10435      4.14298     -0.05367         0.023093      0.860478      0.866318
O	      4.21464      4.16035     -2.12980         0.030125     -0.001950     -0.001107
O	      2.01293      6.22084     -2.16521         0.300951      0.859289      0.849157
O	      4.18205      6.33961     -0.24842        -0.000171      0.166630     -0.164563
O	      2.01318      2.09935     -2.09456         0.298096     -0.858623     -0.850420
O	      4.18222      8.13760     -2.04835        -0.001089     -0.165016      0.166939
O	      2.10417      6.14163      1.94919         0.023491     -0.859822     -0.865252
