# total energy = -596.25136480 eV
 
CRYSTAL
PRIMVEC
11.698109 -0.001655 0.002285 
0.001478 7.809169 0.015142 
3.899908 3.889055 8.123961 
PRIMCOORD
70 1
Ti	      1.86735      1.86264      1.94247        -1.422294     -2.558972      2.344819
Ti	      3.69043      3.71911      5.82837        -0.924805     -0.592814      0.855593
Ti	      1.86851      5.59110      1.95040        -1.050563      2.263386      1.077612
Ti	      3.69070      7.44837      5.83455        -1.658191      2.134594     -1.037274
Ti	      5.57575      1.86150      1.95311         1.213760     -1.845487      1.253356
Ti	      7.44734      3.71854      5.85871         0.466886      0.422654      1.876585
Ti	      5.57581      5.59132      1.95979         1.004960      1.466192     -0.472791
Ti	      7.44923      7.44716      5.86582         0.365029      0.153829      0.227064
Ti	      9.31416      1.85767      1.96520         2.216500     -1.820531     -1.511864
Ti	     11.20271      3.71864      5.82826        -0.630406     -0.586639      4.634978
Ti	      9.31507      5.59508      1.97160         1.760651      0.986214     -3.105227
Ti	     11.20392      7.44694      5.83671         0.119503      2.073358      2.555753
Ti	      0.00407      1.86719      0.00413        -2.918626     -3.763834      1.073768
Ti	     13.03065      3.72270      3.91479         0.270332     -0.846547      1.805915
Ti	      0.00405      5.59411      0.01089        -3.261342      1.101874     -0.505795
Ti	     13.03269      7.45061      3.92268         1.131686      2.413726      0.074325
Ti	      3.72425      1.86569      0.04845         1.313266     -3.671789     -0.403332
Ti	      5.55582      3.72298      3.85483        -0.012052     -1.156952      1.074561
Ti	      3.72519      5.59398      0.05633         0.616312      1.229368     -0.833338
Ti	      5.55552      7.45319      3.86211        -0.757519      1.847326     -0.942953
Ti	      7.44106      1.86645      0.00707         2.711714     -3.508547     -2.199930
Ti	      9.34343      3.72342      3.85859        -1.771323     -1.423181      0.707172
Ti	      7.44130      5.59439      0.01406         2.400172      0.962303     -3.639186
Ti	      9.34259      7.45228      3.85902        -0.793017      1.834435     -1.075633
O	      1.85758      1.86613      0.01312        -2.186630     -0.938858      0.138914
O	      3.73679      3.72324      3.89171        -2.965097     -0.238010      1.900062
O	      1.85786      5.59410      0.01977        -1.890396     -0.335762     -0.797059
O	      3.73669      7.45321      3.89766        -1.699961      0.242011      1.605538
O	      5.58934      1.86575      0.01137        -2.145262     -0.950650      0.627467
O	      7.44633      3.72316      3.98261         0.074574      0.192403      0.422546
O	      5.59049      5.59382      0.01896        -1.717329     -0.248577     -0.352343
O	      7.44861      7.45142      3.98950         0.094018      0.588786      0.432217
O	      9.30798      1.86616      0.02909         0.521797     -0.582114      0.494019
O	     11.16013      3.72273      3.88770         3.481758     -0.383126      0.188003
O	      9.30915      5.59334      0.03616         0.089497     -0.191528     -0.226281
O	     11.15938      7.45174      3.89540         1.696530      0.192203      0.015909
O	      3.72255      1.86295      1.97172        -1.598364     -0.536042     -0.929754
O	      5.63200      3.71859      5.78048        -2.239042     -0.210269      0.486379
O	      3.72318      5.59037      1.97884        -1.325263     -0.267915     -1.499905
O	      5.63364      7.44779      5.78686        -1.551977      0.158033      0.373934
O	      7.45043      1.86119      1.94715        -0.889928     -0.681966     -1.381745
O	      9.26237      3.71819      5.78421         0.497044     -0.187009      0.117305
O	      7.45127      5.59183      1.95425        -0.732818     -0.271237     -1.867445
O	      9.26301      7.44704      5.78925        -0.109264      0.151235     -0.008229
O	     11.16911      1.86039      1.93669         3.377984     -0.359351     -2.708161
O	     13.03298      3.71785      5.85251         3.069433     -0.627746     -2.583882
O	     11.16868      5.59143      1.94351         3.925218     -0.256318     -3.274085
O	     13.03325      7.44675      5.85990         3.025758     -0.260544     -2.072894
O	      3.73418      3.71585      7.75204         0.026878     -1.330153     -0.119519
O	     13.02990      9.31559      3.90447         1.443767      2.382805     -2.126105
O	      3.73482      7.44488      7.76021        -0.225719      3.320325      0.487093
O	     13.02929      5.58615      3.89689         1.350619     -1.698012     -1.434997
O	      7.44744      3.71520      7.73447         0.591800     -0.870015      0.326545
O	      5.59062      1.85878      3.88095         0.294046     -2.061020     -1.425228
O	      7.44907      7.44414      7.74189         0.574082      3.727645      0.274441
O	      5.59112      5.58738      3.88754         0.324367      0.859499     -0.779880
O	     11.15969      3.71564      7.75539         0.437673     -1.254610     -0.246982
O	      9.30903      1.86120      3.88118        -0.327518     -1.884047     -0.831981
O	     11.16036      7.44452      7.76528         0.332881      3.504958      0.315701
O	      9.30971      5.58476      3.88871        -0.262058      1.043637     -0.336267
O	      1.86720      3.72743      1.96365        -1.130626     -1.428960      1.274592
O	      3.71361      5.58388      5.82973        -0.558352     -1.120659      1.884450
O	      1.86846      7.45580      1.97083        -0.954991      1.045847      0.983958
O	      3.71434      9.31258      5.83666        -0.383971      1.620355      2.416219
O	      5.58836      3.72646      1.95411        -0.047139     -0.964491     -0.072989
O	      5.58837      7.45521      1.96114        -0.015262      1.888484      0.746646
O	      9.30154      3.72650      1.96144        -0.152767     -0.762410      0.519384
O	     11.17993      5.58268      5.83274        -0.221213     -1.150793      1.633609
O	      9.30280      7.45539      1.95945        -0.162461      2.120611      1.383415
O	     11.18077      9.31222      5.83966        -0.126951      1.899390      2.193204
