# total energy = -77.03997089 eV
 
CRYSTAL
PRIMVEC
4.109392 -0.000161 -0.000149 
2.054767 4.039521 -6.352332 
2.054456 4.148612 2.191543 
PRIMCOORD
12 1
Ti	      4.21413      4.19215      0.08696         0.173388     -0.271780      0.738957
Ti	      6.26845      6.05822     -4.22384         0.170885      0.274693     -0.743607
Ni	      2.03620      4.05358     -2.09912         0.030835     -0.737489      0.039518
Ni	      4.09074      6.19788     -2.03681         0.031810      0.731677     -0.031998
O	      4.07988      4.10244     -1.90764        -0.041999      0.846924      0.310666
O	      6.13430      6.14878     -2.22847        -0.044147     -0.852300     -0.305861
O	      4.09718      2.15746      0.19036        -0.080574      0.919967      0.450124
O	      6.12303      4.14512      0.01269        -0.100895      0.129406     -0.678159
O	      2.03761      1.96663     -2.13448         0.019657      0.331297     -0.827027
O	      6.14670      4.13565     -4.19336         0.022335     -0.329978      0.824686
O	      4.06801      6.10545     -4.14908        -0.097046     -0.128957      0.676847
O	      4.09765      4.05358      2.02569        -0.084250     -0.913462     -0.454145
