# total energy = -76.50410632 eV
 
CRYSTAL
PRIMVEC
-0.001339 0.000474 3.942369 
6.270966 -0.037512 0.003185 
-0.039817 6.990919 -0.001152 
PRIMCOORD
12 1
Ti	      5.70021      1.71724      1.97453         0.191332     -0.216657      0.008336
Ti	      5.66839      5.16446      1.96502         1.175247      0.109329     -0.001993
Ni	      3.32482      5.33520      0.00171         0.585090      0.485701      0.004008
Ni	      2.63909      3.39553      1.97344        -0.512790     -1.036760      0.001265
O	      0.12506      6.94420      1.97234        -0.657870     -0.080448     -0.003848
O	      3.89330      1.82382      1.97438         0.837741      0.290005     -0.000471
O	      2.55611      0.02668      0.00291         0.009264     -0.531617      0.000098
O	      0.37607      3.49256      1.97275        -0.265486      0.047323      0.000725
O	      3.79711      5.13408      1.97398        -0.229002     -0.255480     -0.002006
O	      5.88174      1.71376      0.00518        -0.319851      0.044046     -0.002212
O	      2.56008      3.51462      0.00227         0.168406      1.002718     -0.000850
O	      5.75474      5.11638      0.00545        -0.982080      0.141840     -0.003051
