# total energy = -76.18106993 eV
 
CRYSTAL
PRIMVEC
2.092319 4.075843 2.092560 
2.094078 -4.077921 2.094172 
4.285451 -0.000141 -4.285712 
PRIMCOORD
12 1
Ti	      4.10506     -0.00134      0.07905        -1.078804      0.000961      1.080217
Ti	      6.48117      2.03652     -0.20419         1.084889      0.001762     -1.081478
Ni	      6.30383     -0.00242      2.06673        -1.093593      0.000276      1.094825
Ni	      6.37666     -2.04017     -0.09817         1.092322     -0.001052     -1.093753
O	      4.28363     -1.97431     -0.14949         0.865443     -0.185850     -0.461375
O	      2.23461      0.02293     -0.05616         0.553384     -0.084972     -1.071468
O	      4.33333      1.97169     -0.09941         0.461654      0.185586     -0.866750
O	      6.25894     -2.06349     -2.16204        -0.558060      0.085012      1.073952
O	      4.23990     -0.02564      1.94927         1.072128      0.084922     -0.555138
O	      4.21010     -0.06619     -2.06842        -0.866532      0.185422      0.459645
O	      6.34624      2.06089     -2.07450        -1.073708     -0.084833      0.555285
O	      6.25232      0.06372     -0.02601        -0.459124     -0.187233      0.866038
