# total energy = -75.40455628 eV
 
CRYSTAL
PRIMVEC
-0.007254 2.174782 2.089697 
3.829566 -2.424541 2.346757 
3.814168 7.302512 -7.090403 
PRIMCOORD
12 1
Ti	      5.96244      4.54713     -2.27401         0.268173      0.379368     -0.372840
Ti	      4.13996      4.73695     -4.54866         0.959613      0.645174     -0.611537
Ni	      3.63119      2.24811      1.96434        -0.471969     -0.016677      0.291083
Ni	      1.86830      4.51549     -2.27104        -0.290924     -0.479589      0.435994
O	      3.98001      4.84642     -2.51119         0.507033      0.388999     -0.569670
O	      3.77301      2.33320      0.00008         0.596307     -0.996281      0.994379
O	      5.92382      2.50372     -2.31992         0.824367      0.337304     -0.451395
O	      3.57453      0.08029      1.79981        -0.200238      0.830281     -1.144317
O	      1.78641      2.57625     -2.42900        -0.831829      0.652711     -0.594221
O	      4.13890      6.72551     -4.44920        -0.943033     -0.764964      0.869298
O	      1.73510      2.35605      1.83045         0.958674     -0.173097      0.182299
O	      6.07106      6.56774     -2.20337        -1.376174     -0.803230      0.970928
