# total energy = -77.28118443 eV
 
CRYSTAL
PRIMVEC
-2.093006 4.054898 -2.091865 
2.092852 4.054726 2.091788 
6.460671 -0.000163 -2.272496 
PRIMCOORD
12 1
Ti	      4.31905      2.14437     -2.22760        -0.070429     -0.111508     -0.070330
Ti	      4.31977      6.19903     -2.22849         0.070207     -0.117007      0.072339
Ni	      4.14288      4.05184      0.04189        -0.079620      0.014090      0.076196
Ni	      0.12968      4.05196     -0.13214         0.077890      0.012948     -0.079679
O	      4.42740      1.99667     -0.24213         0.387211      0.619557     -0.385639
O	      2.13631      4.04402     -0.04521        -0.000274      0.029089      0.000550
O	      4.42931      6.06934     -0.24418         0.380004     -0.653287     -0.378650
O	      4.36303      4.01565     -2.18424         0.497523      0.104405      0.501848
O	      6.30324      6.06933     -2.11908        -0.378741     -0.653624      0.377672
O	      0.04346      4.04407     -2.13703        -0.000115      0.028413      0.000304
O	      6.36970      4.01543     -0.17927        -0.499224      0.106779     -0.501047
O	      6.30523      1.99666     -2.12118        -0.384432      0.620145      0.386434
