# total energy = -66.59648767 eV
 
CRYSTAL
PRIMVEC
2.001359 4.175951 2.018173 
4.080655 -2.106461 -2.058967 
-0.009036 4.247562 -4.169903 
PRIMCOORD
12 1
Mn	      6.03719      2.06396     -0.05440        -0.313980      0.381884     -0.493937
Mn	      2.02875      2.06790     -0.08556        -0.183454     -0.075182     -0.101737
Ni	      2.03418      4.20230     -2.05897        -0.318487      0.120984      0.508235
Ni	      2.07933      2.05819     -4.10343         0.556607     -0.014970      0.243949
O	      3.99937      4.26130     -2.09634        -0.844787      0.491999      0.111555
O	      4.07733      2.14177     -4.33261         0.025854      0.077972     -0.934317
O	      4.06662      2.06674      0.00875         0.038838     -0.042753      0.867785
O	      4.19818     -0.20526     -2.12598         0.916679     -0.469201     -0.158003
O	      1.95050      3.99187      0.02756         0.105401     -0.802937     -0.044888
O	      2.04411      2.12357     -1.98877        -0.201541      0.900879     -0.161971
O	      2.04504      6.42255     -2.25926         0.754265     -0.301073     -0.762229
O	      1.90153      4.32678     -4.16279        -0.535394     -0.267602      0.925557
