# total energy = -76.81621533 eV
 
CRYSTAL
PRIMVEC
-0.000323 2.100397 2.100382 
4.005624 0.001394 -0.001501 
0.007535 8.739632 -8.737088 
PRIMCOORD
12 1
Ti	      3.88194      4.27122     -0.09971         0.305969     -0.697964      0.714464
Ti	      2.10121      8.76258     -6.64804         0.018550      1.648531     -1.665804
Ni	      0.00734      4.44372     -4.41693         0.014356     -0.600310      0.578023
Ni	      0.01006      6.42889     -6.41449        -0.035133      0.475130     -0.478139
O	      0.00651      6.53147     -4.41543         0.008489     -0.477278      0.500680
O	      1.99600      6.76047     -6.75446         0.020515     -0.322087      0.345572
O	      0.00756      4.14798     -2.06385        -0.010872      0.456052     -0.478684
O	      2.01003      4.31251     -4.30517        -0.004918      0.221949     -0.212247
O	      0.00441      2.24462     -0.15772        -0.195784      0.895972     -0.917000
O	      2.03588      4.20166     -0.02350        -0.111425     -0.023080      0.023573
O	      3.99727      8.68161     -6.57349        -0.008800     -0.736812      0.742374
O	      2.00664      8.62510     -8.61988        -0.000947     -0.840103      0.847189
