# total energy = -103.09585189 eV
 
CRYSTAL
PRIMVEC
-2.089515 4.069987 -2.090049 
2.094131 4.074669 2.094770 
6.279748 0.002286 -2.096866 
PRIMCOORD
16 1
Li	      2.12635      4.07436      2.06895         0.001040     -0.001559     -0.009676
Li	      2.12627      2.03319     -0.04253         0.017862     -0.001735      0.002521
Li	      4.14951      4.07337      0.03252        -0.012110      0.001086      0.027203
Li	      2.07981      4.07025     -2.07610         0.002560     -0.000254     -0.001113
Ti	      2.15906      6.10866     -0.06491         0.093534      0.003286     -0.084327
Ti	      4.26159      6.10850     -2.15751         0.036201      0.002637     -0.038448
Ni	      4.14036      2.03589     -2.04154        -0.058851     -0.001325      0.056556
Ni	      0.01704      4.07043     -0.00635         0.010638     -0.003047     -0.020705
O	      2.18204      6.10799     -2.02150         0.037337     -0.002598      0.216356
O	      2.05534      4.21005      0.02137         0.128782      0.159001     -0.011699
O	      4.12082      6.10917     -0.08222        -0.211006      0.001442     -0.035454
O	      4.21460      4.16289     -2.08441        -0.094898      0.170783     -0.008312
O	      6.25063      6.11649     -2.04791        -0.054315      0.129449     -0.101700
O	     -0.01361      3.93221     -2.04573         0.012574     -0.161817     -0.138230
O	      6.27825      3.98369     -0.02174         0.000364     -0.172894      0.095887
O	      6.24262      2.02919     -2.05585         0.090288     -0.122454      0.051141
