# total energy = -115.13544038 eV
 
CRYSTAL
PRIMVEC
-0.000096 4.197560 -0.000091 
-6.339928 2.098932 0.018166 
2.089719 2.098576 7.923269 
PRIMCOORD
18 1
Ti	     -1.00568      5.24587      6.89962        -0.238580     -0.006515     -0.485228
Ti	     -3.17887      3.03285      2.98492         0.001568     -0.386104     -0.001787
Ti	     -3.26374      7.34447      6.99182         0.238816     -0.007508      0.484716
Ni	     -5.34785      5.24438      3.00808         0.098635     -0.014941     -0.502946
Ni	      1.03595      3.14885      6.93601         0.000441      0.001201      0.000613
Ni	     -1.00902      5.24408      2.95952        -0.101045     -0.011501      0.502572
O	     -3.17844      5.30551      2.98379        -0.003483      0.359906     -0.000258
O	     -3.07470      5.24931      6.93589         0.010148      0.023193     -0.009128
O	     -1.19516      3.16164      3.00532        -0.012465     -0.012482     -0.100894
O	     -1.19269      3.15033      6.95452        -0.003173      0.023311      0.012679
O	     -5.16247      3.16172      2.96252         0.016339     -0.013234      0.096955
O	      1.03679      5.24812      6.93596        -0.006726     -0.003675     -0.000313
O	     -3.15807      3.15493      0.99567         0.320252      0.022061      0.520681
O	     -3.19886      3.15499      4.97114        -0.317959      0.027500     -0.517909
O	     -1.03342      1.05253      0.97161         0.049672     -0.005971     -0.022008
O	     -1.04105      5.24985      5.08417         0.410026      0.000999     -0.122477
O	     -5.31583      5.25005      0.88339        -0.403089      0.007283      0.122242
O	      1.01788      3.15133      4.97739        -0.059377     -0.003523      0.022491
