# total energy = -38.36798353 eV
 
CRYSTAL
PRIMVEC
0.011361 4.304280 -0.000123 
-0.001376 -0.000427 3.925869 
4.250767 0.011172 -0.000922 
PRIMCOORD
6 1
Ti	      3.05530      0.93096      2.96964        -0.197125     -0.258798     -0.021280
Ni	      1.05934      3.21305      2.94217        -0.080515     -0.074621     -0.007270
O	      1.17885      1.08571      2.94447         0.238496     -0.043610      0.000270
O	      3.19919      3.37208      2.94281        -0.034937      0.321617      0.009297
O	      1.07120      3.23057      0.97977        -0.053243     -0.076828      0.000586
O	      3.22746      1.13042      0.97066         0.127322      0.132240      0.018396
