# total energy = -77.09706794 eV
 
CRYSTAL
PRIMVEC
2.067920 4.178651 2.068157 
2.093542 -4.204573 2.093334 
4.156195 -0.000214 -4.156230 
PRIMCOORD
12 1
Ti	      4.05089      2.07462      2.17850        -0.477354      0.001481      0.475518
Ti	      4.19927     -0.01416     -0.04074        -0.678694      0.003445      0.680078
Ni	      6.28857     -2.11624     -0.03453         0.421716      0.000030     -0.418565
Ni	      6.23544      2.07428     -0.00621         0.231524      0.003287     -0.239038
O	      4.12776     -2.02034     -0.00323        -0.018756      0.328496     -1.326237
O	      2.18884     -0.16394     -0.00531         0.907808     -0.241365      0.088541
O	      4.16400      1.99236      0.03291         1.327607     -0.334939      0.018090
O	      2.07556     -2.15362      2.02217        -1.393052      0.380644     -0.417203
O	      4.16588      0.13529      1.97175        -0.090332      0.240727     -0.909023
O	      4.15561      0.03376     -1.97807         0.071038     -0.150469      0.723298
O	      2.13856      2.12483      2.08543         0.420263     -0.380953      1.392928
O	      6.13813     -0.06211      0.00431        -0.721769      0.149617     -0.068387
