# total energy = -135.78100845 eV
 
CRYSTAL
PRIMVEC
-0.020869 6.151124 6.065124 
6.469287 0.007195 6.030673 
4.339848 4.102630 -0.021069 
PRIMCOORD
27 1
Cr	      8.65852      4.11700      4.15344         0.590011     -0.321846      4.936627
Cr	      4.48357      4.14646      8.07452         0.861247     -2.442961     -1.259591
Cu	      6.43754     10.18206      8.02962        -0.392303      0.034738     -0.680395
Cu	      6.46509      1.99403      7.98486        -0.604360      0.005591     -0.379813
Cu	      6.36879      6.22460      4.01932         0.184755      0.572789      0.441705
Cu	      4.26778      6.17179      6.01426        -0.334775     -0.345555     -1.073877
Cu	      6.55304      6.22853      7.99105         0.546853     -0.785244     -0.274030
Cu	      4.26658      2.00185      2.02636        -0.374162      0.974377     -0.475439
Cu	      6.52241      2.05408      4.12019         0.087599     -0.281412      1.087298
O	      2.37937      6.14536      6.10173         0.514246      0.141755      0.841130
O	      4.29959      8.05752      6.23163         0.011188     -0.603000      0.300790
O	      4.10352      6.23465      8.26799        -0.244275     -0.116920     -0.413621
O	      6.79370      8.14241      8.17485        -0.117276     -0.212432      0.886966
O	      6.23906      6.29683     10.00826        -0.326614      1.013138     -0.862220
O	      1.87853      1.92871      2.05434        -0.154181     -0.542487      0.528550
O	      4.50571      3.81601      1.94329         0.881232     -0.129486     -0.026670
O	      4.08831      2.02787      3.93901        -0.063649     -0.817000     -0.629874
O	      6.67234      4.00275      4.00141         0.095302     -0.375837     -0.711933
O	      6.48915      2.05454      6.07513         0.156157     -0.054359     -0.108731
O	      8.64126      4.13475      5.92271         0.016178      0.049352     -2.982707
O	      2.08155      4.05650      3.97135        -0.046319     -0.623434      0.144595
O	      4.40954      6.09177      3.81768         0.783924      0.119151     -0.272421
O	      4.26896      4.25750      6.20071        -0.113120      1.044180      1.260176
O	      6.18545      6.17653      6.01684        -0.723706      0.154705      0.075350
O	      6.32826      4.35192      8.00642        -0.713603      0.488596      0.314616
O	      8.90556      6.31163      8.01530         0.281721      1.612408      0.072775
O	      8.78826      8.31425      9.97162        -0.802073      1.441193     -0.739256
