# total energy = -76.92559460 eV
 
CRYSTAL
PRIMVEC
4.045181 -0.011428 4.216891 
0.004241 4.177784 -4.232856 
-0.009878 4.160565 4.215021 
PRIMCOORD
12 1
Ti	      4.04241      6.24776      2.09414        -0.002354      0.000171      0.000397
Ti	      4.04073      4.15810      4.20968        -0.000619     -0.000557     -0.000056
Ni	      4.04558      2.07811      2.10255         0.003133     -0.001301     -0.003132
Ni	      2.02060      6.25244     -0.01496        -0.003299      0.001191      0.003181
O	      0.02807      2.13306      0.06030        -1.264342      0.832283      0.128277
O	      4.04215      4.23571      2.18388         0.009253      0.215751      1.158002
O	      1.95098      2.07787      2.14242        -0.150330      0.000092      0.853455
O	      1.90809      4.20745     -0.00891        -0.111310      1.063897      0.003092
O	      4.03894      4.08087      6.23641        -0.011552     -0.216276     -1.155510
O	      4.00855      6.19494      4.14300         1.260991     -0.832744     -0.129014
O	      2.12759      4.12040      4.21238         0.115375     -1.065343     -0.003901
O	      2.08496      6.24980      2.06088         0.155055      0.002834     -0.854790
