# total energy = -75.93334016 eV
 
CRYSTAL
PRIMVEC
-2.075645 2.075613 4.154671 
0.031176 -4.212538 4.201068 
4.212940 -0.031043 4.201140 
PRIMCOORD
12 1
Ti	     -1.09315     -1.15295      5.22177         0.302686      0.308841      0.000038
Ti	      1.14660     -0.98842      3.14454        -0.298336     -0.298665     -0.005300
Ni	      1.06369      1.00349      5.22187        -0.072228     -0.065533     -0.000873
Ni	      3.20352     -3.17627      7.34564         0.062582      0.065010     -0.001229
O	      3.17426     -3.10230      9.42593        -1.215877      0.529529     -1.012683
O	      0.99015      1.03271      7.30191        -0.538963      1.217310     -1.015358
O	     -1.00065     -0.99444      7.20558        -1.225354      0.830550     -0.631738
O	      0.98866     -1.08087      5.12810        -0.828154      1.228260     -0.631965
O	      1.20078     -1.13026      9.41996         0.534822     -1.216844      1.014291
O	      1.12438     -3.28187      7.34248         1.214792     -0.540613      1.015362
O	      3.27770     -1.09137      7.43887         0.835870     -1.228029      0.631922
O	     -1.02148      0.92895      5.31467         1.228159     -0.829816      0.637534
