# total energy = -101.82250939 eV
 
CRYSTAL
PRIMVEC
0.000023 2.080567 2.080418 
8.431937 -2.139057 2.139002 
-0.002023 4.274037 -4.273712 
PRIMCOORD
16 1
Li	      0.11490      2.27865      1.88008         0.024088     -0.004582      0.005443
Li	      1.85304      2.22270     -0.14529         0.006180      0.017503     -0.015674
Li	      6.57457     -0.03805      2.11952        -0.005730     -0.007453      0.006977
Li	      0.10146      4.01384      0.14469         0.012160      0.004551     -0.005015
Ti	      4.08287      2.06381      2.09388        -0.402779     -0.025395      0.026511
Ti	      6.55699      2.11052     -0.03366         0.721927      0.025823     -0.022357
Ni	      4.15076      4.20779     -0.04931         0.038060      0.002582     -0.002987
Ni	      1.93878      4.17681     -2.09901        -0.094768      0.062301     -0.058703
O	      4.21146      2.01567      0.06173         0.017563     -0.126268      0.123474
O	      4.29718      0.04435      2.03328         0.040264      0.125177     -0.125937
O	      6.19926      2.20631      1.95162        -0.015091      0.055141     -0.055265
O	      6.17282      4.07311      0.08468         0.101290     -0.086400      0.083224
O	      8.41641     -0.03796      2.11600        -0.015156      0.005692     -0.005985
O	      2.20254      4.27473     -0.11623        -0.110197     -0.133233      0.133053
O	      8.33016      2.11176     -0.03414        -0.738933     -0.000822     -0.000361
O	      2.25246      2.00376      2.15445         0.421123      0.085382     -0.086397
