# total energy = -77.22648739 eV
 
CRYSTAL
PRIMVEC
2.078453 4.142926 2.078648 
2.072292 -4.136475 2.072716 
4.201269 0.000114 -4.201948 
PRIMCOORD
12 1
Ti	      4.29862      2.07092     -2.21928         0.683705      0.002162     -0.681733
Ti	      4.07389      0.00304      0.07839        -0.378889      0.001001      0.380540
Ni	      2.05208     -2.06832      0.02145        -0.218113     -0.001619      0.214558
Ni	      4.19204     -2.06841     -2.11842         0.202142     -0.002086     -0.207409
O	      4.22710     -1.98494     -0.05726         0.186306      0.326604     -1.310682
O	      2.18935     -0.05772     -0.01430         0.686889     -0.568051      0.216941
O	      4.20935      1.99086     -0.07464         1.312462     -0.327661     -0.186980
O	      6.24675     -2.10625     -2.05192        -1.272118      0.338292      0.306825
O	      4.16569      0.06365      1.96321        -0.215066      0.568449     -0.689058
O	      4.18038      0.11396     -2.01586         0.051721     -0.170982      0.737724
O	      6.20378      2.11196     -2.09442        -0.303579     -0.336614      1.270546
O	      6.16782     -0.10815     -0.02778        -0.735460      0.170505     -0.051272
