# total energy = -77.08676752 eV
 
CRYSTAL
PRIMVEC
-0.000805 4.048663 0.001151 
4.210525 -0.002225 4.161769 
4.335048 -0.001796 -4.285675 
PRIMCOORD
12 1
Ti	      6.43583      2.21988     -0.09653         0.010839     -0.182427     -1.698113
Ti	      4.36155      1.84921     -2.15023         1.893341      0.062972     -0.114795
Ni	      4.16307      2.00145      2.02013        -0.995915     -0.024637     -0.113731
Ni	      2.07025      4.04618     -1.99414         0.406091     -0.018924      0.378194
O	      2.12927      0.00426     -0.05145        -0.041848     -0.017197     -0.434767
O	      4.43987      2.01638     -0.17825         0.264800     -0.010426      0.140199
O	      4.25801      4.02918      2.04580         0.855456      0.005660      0.030069
O	      6.48392      2.01709      1.91279        -0.407488     -0.006881     -0.002489
O	      4.27675      0.01993     -2.15272        -0.960535     -0.002472      0.120722
O	      6.32998      2.01511     -2.07377        -0.465872     -0.015008      0.955482
O	      6.41661      4.03578     -0.01442        -0.115802      0.213471      0.813743
O	      8.39280      2.01857      0.00299        -0.443067     -0.004131     -0.074514
