# total energy = -76.59436603 eV
 
CRYSTAL
PRIMVEC
2.096501 4.232845 2.069014 
4.195626 -2.113940 -2.076754 
-0.006032 4.271433 -4.208788 
PRIMCOORD
12 1
Ti	      0.03898      2.04397     -2.01566         0.303561      0.108123      0.034482
Ti	      2.09096      2.32417     -4.32355        -0.260072     -0.015723     -0.002754
Ni	      4.19230      2.18040     -2.06806        -0.441364      0.183695      0.594892
Ni	      4.27156      4.28526     -4.30000         0.351192     -0.257830     -0.492983
O	      2.03067      2.16830     -2.21022         0.209000      0.339057     -0.908114
O	      4.34464      4.34158     -2.17715         0.891987     -0.023901     -0.413890
O	      2.16052      4.17023     -4.27601         0.586987     -0.710518      0.192529
O	      4.19222      2.08631      0.04769         0.037456     -0.551834     -0.427138
O	      4.27800      0.06553     -2.16486        -0.144475      0.758680      0.254401
O	      2.06606      4.43030      0.00563        -0.468446      0.497422     -0.234260
O	      4.11937      2.12393     -4.19085        -1.102843      0.065366      0.581113
O	      2.19564      6.43259     -2.06015         0.037016     -0.392536      0.821723
