# total energy = -75.81205188 eV
 
CRYSTAL
PRIMVEC
-2.117365 4.347154 -2.119079 
2.067491 4.296411 2.069078 
6.277518 -0.025724 -2.094194 
PRIMCOORD
12 1
Ti	      2.05387      4.38537     -2.09543         0.155440      0.089480     -0.279447
Ti	      4.30455      6.56911     -2.25578         0.256001      0.047056     -0.182670
Ni	      0.03276      4.38461     -0.01875        -0.294880      0.160179      0.325394
Ni	      2.04945      6.56900     -0.00159         0.206932     -0.278018     -0.358617
O	      2.16761      6.42947     -2.16083         1.215482     -1.096900      1.227914
O	      2.08080      4.41814     -0.10242        -1.222083      0.991968     -1.588345
O	      2.11188      2.34270     -2.21635        -1.152739      1.085056     -1.079640
O	      4.15866      4.52250     -2.13063        -0.141347      0.777130      0.093848
O	     -0.00690      6.52156     -0.05455        -0.441679     -1.045547     -0.001642
O	      0.05655      4.35576     -2.12728         1.619523     -0.911692      1.423322
O	      6.33046      4.20013      0.04176        -0.143429     -0.888589      0.084824
O	      0.06839      2.24644      0.02106        -0.057221      1.069877      0.335059
