# total energy = -64.62667592 eV
 
CRYSTAL
PRIMVEC
-0.000230 2.090653 2.088229 
6.044976 6.318103 -4.223575 
-4.031971 2.111101 -2.108142 
PRIMCOORD
12 1
Mn	     -3.94281      4.18819     -0.00508         0.923303      0.594074     -0.596905
Mn	     -0.00089      4.23058     -0.04692        -1.212097      0.269780     -0.266395
Ni	      2.03402      6.28564     -4.19145        -0.196510     -0.216550      0.213038
Ni	      4.00846      6.25965     -2.07612        -0.498376     -0.565226      0.554377
O	      4.17675      6.23679     -4.13691        -0.141726     -0.656550      0.649470
O	      0.03674      6.36709     -4.27432         0.693718      0.925476     -0.915113
O	      2.05263      8.42905     -4.24546        -0.569033     -0.210298      0.207837
O	     -2.03630      4.17527      0.00951        -0.043193      0.007988     -0.009659
O	     -0.05170      4.06214     -1.96736         0.575687     -1.030861      1.026179
O	      2.04349      6.40344     -2.21947         0.751397      0.665077     -0.653988
O	     -0.01497      2.14087     -0.04358         0.107983      0.090630     -0.077596
O	      1.83155      4.21237     -0.02802        -0.391152      0.126461     -0.131244
