# total energy = -103.89969188 eV
 
CRYSTAL
PRIMVEC
-2.099993 4.176736 -2.098958 
2.051461 4.127497 2.049756 
6.268711 -0.024142 -2.115862 
PRIMCOORD
16 1
Li	      2.10287      4.12922      2.00732        -0.002696     -0.007550     -0.012547
Li	      2.07496      2.06590     -0.03271        -0.003775     -0.003043      0.024663
Li	      4.19345      2.06629     -2.13340         0.002557     -0.000803     -0.018092
Li	      6.23255      4.12484     -2.11845         0.004349      0.006984     -0.009811
Ti	      2.00477      4.15524     -2.05585        -0.125885     -0.004149      0.117597
Ti	      4.29949      6.21361     -2.28811         0.290536      0.020600     -0.289304
Ni	      4.14173      4.12619     -0.04052        -0.007501      0.003851      0.020179
Ni	      1.97893      6.21547      0.02375        -0.074810     -0.001808      0.081914
O	      2.11866      6.14579     -2.11206         0.031297     -0.124409     -0.088738
O	      2.08833      4.16546     -0.12673        -0.102621     -0.113169     -0.175387
O	      4.11507      6.28537     -0.11854         0.082831      0.123118     -0.022203
O	      4.06255      4.25285     -2.09464        -0.043627      0.095294     -0.118589
O	      6.15772      6.20030     -2.13896        -0.376336      0.000687     -0.029580
O	      0.07678      4.13797     -2.13467         0.181311      0.113063      0.101417
O	      6.19743      4.00221      0.04042         0.126274     -0.105421      0.050783
O	      6.24754      2.05497     -2.05005         0.018098     -0.003246      0.367698
