# total energy = -65.59052568 eV
 
CRYSTAL
PRIMVEC
-0.000118 2.062812 2.063275 
8.217244 -4.213788 4.213652 
2.044549 2.118921 -4.182393 
PRIMCOORD
12 1
Mn	      0.09129      0.02625     -0.02636        -0.399500      0.119724     -0.190890
Mn	      6.14234     -0.03184      2.09248         0.334876      0.142002     -0.164294
Ni	      4.04673      0.03049     -0.03232        -0.018893     -0.264321      0.257039
Ni	      8.22900     -2.10963      2.10785        -0.419021     -0.209094      0.121177
O	      2.01551      2.26515     -2.26664        -0.338941      0.758308     -0.631004
O	      6.18617     -0.15957      0.15795        -1.135573     -0.459314      0.400443
O	      6.18751     -2.00147      1.99865         0.991531      0.700189     -0.542314
O	      8.19369     -0.06598      2.12744         0.483681     -1.075851      0.885622
O	      8.20541     -2.18090      4.24306         0.330312     -0.152600      0.268229
O	      1.93850      0.01164     -0.01207         0.463757      0.061905     -0.034368
O	      4.09599      2.01425      0.04833        -0.204400     -0.663601      0.663501
O	      4.25865     -0.00283      2.06363        -0.087831      1.042652     -1.033143
