# total energy = -74.84799541 eV
 
CRYSTAL
PRIMVEC
2.179531 4.400483 2.150955 
4.361789 -2.197660 -2.159001 
-0.006271 4.440599 -4.375473 
PRIMCOORD
12 1
Ti	      0.04212      2.20907     -2.17848         0.293730     -0.103600      0.205909
Ti	      2.34617      2.68619     -4.58761        -0.156968      0.610795     -0.271430
Ni	      4.53094      2.35652     -2.23511        -0.220199      0.166323      0.322012
Ni	      4.61660      4.63141     -4.64734         0.170966     -0.230803      0.012267
O	      2.19470      2.34345     -2.38876         0.414391      0.360996     -1.259296
O	      4.69558      4.69228     -2.35302         0.995386     -0.515713     -0.362816
O	      2.33504      4.50708     -4.62142         1.205200     -2.013430      0.287726
O	      4.53086      2.25483      0.05154        -0.100953     -0.610780     -0.319729
O	      4.62356      0.07082     -2.33972        -0.393123      1.516967     -0.130905
O	      2.23294      4.78817      0.00609        -0.909634      0.832791     -0.603415
O	      4.45212      2.29550     -4.52937        -1.690559      0.555870      1.177207
O	      2.37300      6.95219     -2.22656         0.391764     -0.569417      0.942471
