# total energy = -76.59171356 eV
 
CRYSTAL
PRIMVEC
2.039850 4.184087 2.022842 
4.083855 -2.089900 -2.031528 
-0.012044 4.241790 -4.148442 
PRIMCOORD
12 1
Ti	      2.00177      4.10628     -1.94561        -0.061777     -0.381885     -0.002618
Ti	      4.01442      4.30178     -4.25808         0.293571      0.004007     -1.004315
Ni	      3.99646      0.03087     -3.99094         0.102467     -0.747631      1.105368
Ni	      4.03366      6.26525     -2.09417        -0.237880      0.658346     -0.175224
O	      1.96635      2.24166     -2.07032        -0.484369     -0.109864     -1.116094
O	      3.96901      4.22584     -2.11984         0.383667      1.110427     -0.344840
O	      2.11625      4.13590     -4.04139         0.505917     -0.744316      0.142768
O	      4.05331      1.92402      0.00854         0.108698     -0.098505      1.036722
O	      4.01725      0.01509     -1.96982        -0.040685     -0.137444     -0.507691
O	      2.05006      4.20819     -0.11707        -0.318673      0.556177      0.359638
O	      4.10913      2.16285     -4.08498        -0.229866     -0.014029      0.100696
O	      1.93484      6.15324     -2.05016        -0.021070     -0.095284      0.405590
