# total energy = -75.86716200 eV
 
CRYSTAL
PRIMVEC
1.988339 4.078429 1.971760 
3.980727 -2.037125 -1.980227 
-0.011740 4.134675 -4.043684 
PRIMCOORD
12 1
Ti	      1.90195      3.90152     -1.84859        -0.989043      0.385216     -0.623562
Ti	      3.81422      4.08726     -4.04574         1.129689      0.124857     -1.384772
Ni	      3.79717      0.02933     -3.79192         0.426625     -1.604629      0.640377
Ni	      3.83251      5.95282     -1.98974         0.084800      2.085849     -0.187078
O	      1.86829      2.12988     -1.96707        -0.703245     -2.836262     -1.227108
O	      3.77109      4.01510     -2.01413         2.136846      0.949960      0.016152
O	      2.01072      3.92966     -3.83986        -1.068975     -0.857300     -1.091274
O	      3.85119      1.82808      0.00811         0.224157      0.260703      1.461160
O	      3.81692      0.01434     -1.87159         0.059261     -0.351676     -0.693858
O	      1.94783      3.99834     -0.11124        -0.369811      0.705090      3.059543
O	      3.90422      2.05500     -3.88127        -0.408434     -0.458984     -0.342990
O	      1.83836      5.84640     -1.94793        -0.521870      1.597177      0.373410
