# total energy = -76.00798861 eV
 
CRYSTAL
PRIMVEC
2.067991 4.129760 2.067942 
2.112621 -4.174735 2.112554 
4.160923 0.000026 -4.160809 
PRIMCOORD
12 1
Ti	      4.08300     -0.02147      0.07608         0.207998      0.041282     -0.151010
Ti	      4.22584     -2.07620     -2.12369        -0.237868     -0.080948      0.134518
Ni	      6.21230     -0.02164     -2.05325         0.104348      0.068423     -0.050546
Ni	      2.09610     -2.07627      0.00539        -0.128569     -0.120645      0.012220
O	      4.15905     -1.98261     -0.08067        -1.065761      0.392098     -0.660195
O	      2.17276     -0.01110      0.02547         0.207285     -1.045888      1.162317
O	      4.23989      1.93950     -0.00003         0.692588     -0.387678      1.075574
O	      6.13564     -2.08679     -2.07330        -0.316060      0.996577     -1.194966
O	      4.13340     -0.03225      1.98640        -1.158678      1.075019     -0.212967
O	      4.14949     -0.11507     -1.96737         1.026137     -0.543509      0.534508
O	      6.23252      2.04345     -1.97665         1.218331     -0.998598      0.386425
O	      6.12635      0.07189      0.00965        -0.549751      0.603867     -1.035879
