# total energy = -144.18944764 eV
 
CRYSTAL
PRIMVEC
0.049956 6.037291 6.322494 
6.037291 0.049956 6.322494 
4.043207 4.043207 0.016971 
PRIMCOORD
27 1
Co	      4.12604      6.00442      6.33098         0.116346     -0.116346     -0.000000
Co	      8.03019      2.10027      6.33098        -0.937252      0.937252     -0.000000
Co	      6.03645      4.09330      2.16918        -0.955197      0.408184      0.423000
Co	      5.89015      1.96974      4.25290        -1.282512     -0.496311      0.410860
Co	      8.16071      4.24031      8.40906         0.496311      1.282512     -0.410860
Co	      2.05484      2.01774      4.20794         0.731387     -0.430954      0.026432
Co	      6.03716      4.09401     10.49278        -0.408184      0.955197     -0.423000
Co	      8.11271      8.07561      8.45402         0.430954     -0.731387     -0.026432
Ni	      2.01233      4.07492      6.32249        -0.007377      0.007377     -0.000000
O	      4.05478      2.03018      4.25450         0.044411     -0.052734     -0.089554
O	      8.10028      6.07567      8.40745         0.052734     -0.044411      0.089554
O	      2.05899      2.00546      2.26771         0.029154     -0.434223      0.448800
O	      4.12409      4.04839      2.12744         0.741558      0.110322      0.118008
O	      6.06526      4.11208      4.06030        -0.134310      0.301255     -1.266419
O	      6.18614      2.07654      6.19787         1.278570     -0.041731     -0.778885
O	      8.05392      3.94432      6.46408         0.041731     -1.278570      0.778885
O	      1.93941      3.96571      4.19621        -0.794088     -1.002550     -0.391275
O	      4.17755      6.16227      4.29641         0.825091      0.638645      1.216931
O	      4.02429      4.10166      6.48633        -0.060362      1.588210      1.063467
O	      6.02879      6.10616      6.17563        -1.588210      0.060362     -1.063467
O	      6.01837      4.06520      8.60166        -0.301255      0.134310      1.266419
O	      2.10676      6.13706      6.50664         1.206146      0.213450      0.618575
O	      3.99340      8.02370      6.15532        -0.213450     -1.206146     -0.618575
O	      3.96818      5.95291      8.36554        -0.638645     -0.825091     -1.216931
O	      6.16474      8.19104      8.46575         1.002550      0.794088      0.391275
O	      6.08207      6.00636     10.53452        -0.110322     -0.741558     -0.118008
O	      8.12499      8.07147     10.39425         0.434223     -0.029154     -0.448800
