# total energy = -75.28901119 eV
 
CRYSTAL
PRIMVEC
2.016032 4.025997 2.015984 
2.059541 -4.069842 2.059475 
4.056377 0.000025 -4.056266 
PRIMCOORD
12 1
Ti	      3.88040     -0.02041      0.07231         0.672769      0.356555     -0.135829
Ti	      4.01616     -1.97318     -2.01831        -1.082014     -0.751838     -0.100846
Ni	      5.90405     -0.02057     -1.95138         0.907619      0.479753     -0.450230
Ni	      1.99208     -1.97325      0.00513        -1.004272     -0.947622     -0.009511
O	      3.95268     -1.88423     -0.07667        -0.947744     -1.832977      0.402782
O	      2.06495     -0.01055      0.02421        -2.549854     -0.883128      0.929332
O	      4.02951      1.84326     -0.00003         0.130952      1.850324      1.030874
O	      5.83119     -1.98324     -1.97042         1.846462      0.754956     -1.108828
O	      3.92830     -0.03065      1.88784        -0.999502      1.174931      2.550733
O	      3.94359     -0.10936     -1.86974         0.682160      0.797450     -1.383116
O	      5.92326      1.94205     -1.87856         1.262694     -0.940346     -1.059458
O	      5.82236      0.06832      0.00917         1.080730     -0.058058     -0.665903
