# total energy = -74.16744663 eV
 
CRYSTAL
PRIMVEC
-2.179947 4.475641 -2.181712 
2.128599 4.423398 2.130233 
6.463060 -0.026484 -2.156091 
PRIMCOORD
12 1
Ti	      2.17708      4.64843     -2.22113        -0.339218      0.134069     -0.705243
Ti	      4.56276      6.96317     -2.39110         0.474771      0.496629     -0.677415
Ni	      0.22576      4.64684     -0.08360        -0.881148      0.257656      0.292520
Ni	      2.17238      6.96305     -0.00168         0.479737     -0.555793     -0.539476
O	      4.47759      2.33951     -0.10874         1.574032     -2.057720      1.273741
O	      2.20562      4.68317     -0.10856        -0.588509      1.360091     -2.506650
O	      2.23857      2.48324     -2.34930        -1.241642      2.062852     -1.330620
O	      4.40811      4.79379     -2.25844        -0.235084      0.984640      0.210845
O	      0.18372      6.91198     -0.12155        -1.489764     -1.267764      0.138454
O	      0.05995      4.61705     -2.25489         2.902657     -1.281243      1.479391
O	      6.71020      4.45209      0.04427        -0.355830     -1.616511      0.619254
O	      0.26352      2.38042     -0.04141        -0.300002      1.483093      1.745199
