# total energy = -215.14822799 eV
 
CRYSTAL
PRIMVEC
0.026067 6.285348 6.318782 
6.261892 0.043475 6.301470 
4.176657 4.180774 0.026834 
PRIMCOORD
27 1
Ti	      4.11478      2.08508      2.09058        -3.484570      3.031033      2.413218
Ti	      6.21316      2.14102      4.17067        -1.367018     -2.946845      3.645070
Ti	      4.31184      6.14915      2.15237        -1.274221      0.687185     -0.032702
Ti	      6.36205      4.23300      6.29652         1.813949     -0.359709     -0.149186
Ti	      2.11478      6.25287      4.21669        -2.176412     -1.186230     -1.829317
Ti	      6.29560      8.36473      6.38308        -1.310216     -1.801145     -6.172440
Ti	      4.19213      6.28403      6.35844         1.536133      2.213840     -3.965812
Ti	      4.10399      4.30997      8.35715         4.665851     -3.355267      3.588676
Ni	      6.17242      4.40646      2.26353         0.053847     -0.433512      0.446013
O	      2.11134      2.22793      2.11991         0.609896     -1.672417     -0.106223
O	      4.14534      4.19278      2.11083         1.759845     -0.029507     -0.037454
O	      4.22830      2.09389      4.13878         2.250498     -0.034467     -2.926290
O	      6.27734      4.08223      4.33828         0.182904     -0.632705     -0.011231
O	      6.26635      2.17830      6.32975         0.326641      1.739658      0.000458
O	      8.23206      4.24813      6.32963        -0.785452     -0.026281     -0.118369
O	      2.09324      4.30150      4.31669         0.158613      1.288204      3.329947
O	      4.19221      6.28027      4.20692        -1.228795     -0.161411      0.696672
O	      4.21148      4.16471      6.26210        -1.310761      2.375347      2.550993
O	      6.25192      6.29405      6.34216        -2.570237      0.632721      0.177048
O	      6.17948      4.14358      8.35485        -2.067532     -0.932095     -1.877878
O	      8.43717      6.37138      8.47784         1.407082      1.943828      1.253818
O	      2.17274      6.23236      6.22541         1.764371     -1.343433      1.461022
O	      4.20395      8.37782      6.32678         2.170314     -2.622752      2.505509
O	      4.21483      6.29850      8.41985        -1.510106     -0.085357     -1.798563
O	      6.23676      8.24110      8.42968         0.432378      1.875749     -0.279487
O	      6.38938      6.41095     10.52571         1.805173      2.187729      0.036966
O	      8.35189      8.33758     10.49538        -1.852174     -0.352160     -2.800459
