# total energy = -205.49444803 eV
 
CRYSTAL
PRIMVEC
0.061008 6.292488 6.328584 
6.308489 0.043705 6.345584 
4.211140 4.211877 0.023613 
PRIMCOORD
27 1
Ti	      8.30222      2.15504      6.40989        -0.951952     -1.166273     -2.467608
Ti	      6.24748      4.20846      2.21465        -1.896499     -3.322526     -0.639632
Ti	      2.24558      4.15277      2.12886         0.764171      2.755137      0.653869
Ti	     10.49598      8.51595     10.61407         0.215813     -0.457798     -0.271171
Ti	      4.23051      6.15900      6.31995        -0.702440     -0.199398     -1.118749
Ti	      2.25313      2.06209      4.15451        -1.212638      0.663637      1.837174
Ti	      6.40425      6.44429      8.42482         0.770792      0.738629      0.652730
Cu	      8.43731      4.31840      4.38892         0.196879     -0.513478     -0.429885
Cu	      4.41933      2.24857      6.29208         0.910670      1.221706      0.310155
O	      2.11156      2.08818      2.12154         0.196875     -0.242011      0.799586
O	      4.21019      4.22270      2.13144         0.506987     -0.118061      0.097430
O	      4.09322      2.18558      4.18103        -0.453581     -1.260826      1.583002
O	      6.24955      4.22905      4.17592         1.602127      2.220759     -1.815968
O	      6.47102      2.11297      6.34461        -0.333310      0.038478      0.127359
O	      8.41448      4.14115      6.51268         0.032726     -0.212236      0.287976
O	      2.01885      4.16054      4.19114        -0.059712     -2.109128     -2.036106
O	      4.33425      6.41632      4.30558         1.253349      0.641897      1.327590
O	      4.22251      4.33852      6.31670         0.001175     -1.020185      0.112628
O	      6.20645      6.34291      6.37410         0.654126     -0.172868     -0.317853
O	      6.40847      4.31481      8.57409         1.413657      1.164085      0.718561
O	      8.35001      6.24853      8.48461        -1.022385     -1.204343     -1.612554
O	      2.23749      6.32242      6.39458         0.798618      1.784133      2.099598
O	      4.17122      8.37812      6.23165        -1.156643     -1.012159     -0.676061
O	      4.24440      6.36503      8.28585        -0.259132     -0.100545      0.505900
O	      6.37617      8.39064      8.47849        -0.051367      0.624978     -0.113622
O	      6.39497      6.25823     10.42799        -1.621483     -0.447068     -0.935906
O	      8.57576      8.34760     10.70014         0.403178      1.705465      1.321558
