# total energy = -103.13973649 eV
 
CRYSTAL
PRIMVEC
4.106835 0.000895 -0.000101 
0.001018 4.319033 -4.115549 
0.001420 6.469330 2.048393 
PRIMCOORD
16 1
Li	      4.10086      0.18925     -0.14597         0.001965      0.010535     -0.012716
Li	      2.05376      2.21071     -0.07188         0.001339     -0.045874     -0.030374
Li	      2.05498      6.50622      0.02636         0.000388      0.041411      0.029791
Li	      4.10318      2.02726     -1.93038         0.000626     -0.008841      0.015663
Ti	      0.04914      6.37167     -2.06108         0.014953     -0.131892      0.012392
Ti	      2.06549      8.78654     -2.01300         0.003090      0.385870      0.227122
Ni	      4.10226      4.30699     -0.01236        -0.004226     -0.015240     -0.004895
Ni	      2.05173      4.25448     -2.03213         0.005895      0.018456     -0.015947
O	      4.09781      2.19564      0.12001         0.007568     -0.093876      0.144191
O	      2.04850      4.29745      0.07714        -0.003560      0.007401      0.131182
O	      4.10151      4.44596     -2.06518         0.009844      0.202318     -0.090738
O	      2.03838      6.50658     -2.06208        -0.040446      0.079747     -0.002389
O	      4.09852      6.43695     -0.14180         0.007634      0.062998     -0.162663
O	      2.05034      8.67444     -0.13142        -0.002902     -0.104291     -0.238368
O	      4.10112      8.50328     -2.06574        -0.002332     -0.032430      0.106039
O	      2.05148     10.61950     -2.04851         0.000162     -0.376292     -0.108292
