# total energy = -72.80297346 eV
 
CRYSTAL
PRIMVEC
1.974464 3.942987 1.974417 
2.017076 -3.985928 2.017012 
3.972741 0.000024 -3.972632 
PRIMCOORD
12 1
Ti	      3.72203     -0.01958      0.06936         1.141309      0.964736      0.056165
Ti	      3.85225     -1.89265     -1.93594        -2.335016     -1.990871     -0.962426
Ni	      5.66309     -0.01973     -1.87173         2.057331      1.064539     -0.954407
Ni	      1.91079     -1.89272      0.00492        -2.116356     -1.818456      0.066796
O	      3.79136     -1.80733     -0.07354        -0.376236     -4.317532      1.576042
O	      1.98068     -0.01012      0.02322        -5.565711     -0.471771      0.599669
O	      3.86505      1.76803     -0.00003        -0.319144      4.246964      0.769924
O	      5.59321     -1.90231     -1.89000         4.178873      0.138285     -1.035307
O	      3.76798     -0.02940      1.81079        -0.723225      1.097844      5.530763
O	      3.78265     -0.10490     -1.79344        -0.149407      2.244749     -3.429105
O	      5.68153      1.86279     -1.80190         1.200011     -0.671297     -2.241654
O	      5.58474      0.06553      0.00879         3.007570     -0.487190      0.023541
