# total energy = -75.24637055 eV
 
CRYSTAL
PRIMVEC
-2.024796 3.943367 -2.026216 
2.010793 3.928046 2.011188 
6.153787 -0.006887 -2.118353 
PRIMCOORD
12 1
Ti	      1.86903      3.80100     -1.88620        -1.638580     -1.274195      0.140048
Ti	      4.08175      5.69224     -2.14532         1.348261      1.774650     -2.045005
Ni	      3.91110      3.79097     -0.02906        -0.548953     -0.404093      2.713228
Ni	      3.99417      1.89702     -2.04722         1.314000     -1.509206     -1.729445
O	      2.07020      5.63268     -2.06129        -0.855583      2.828746     -1.321256
O	      1.99416      3.79890     -0.14287         1.319584     -0.122880      1.947595
O	      3.99227      5.75622     -0.14223         1.219694     -0.001482      0.631869
O	      3.88152      3.86059     -1.97049         0.368176     -2.404569      0.372684
O	      5.82446      5.69500     -2.02417         1.937219      0.509135      1.380661
O	      0.12699      3.79833     -2.00728        -2.574611     -0.148824     -1.723408
O	      5.85345      3.72236      0.00669        -0.699500      0.969598      0.482467
O	      5.91112      1.88909     -1.93341        -1.189708     -0.216881     -0.849439
