# total energy = -63.42022650 eV
 
CRYSTAL
PRIMVEC
0.000005 2.093008 -2.093007 
0.000010 2.093003 2.093002 
16.860001 -0.000116 -0.000092 
PRIMCOORD
12 1
Mn	     16.85801      4.18462     -0.00084         0.152521      0.001226      0.000160
Mn	      8.42810      0.00037     -0.00046        -0.109998     -0.000860      0.000367
Ni	      6.09577      2.09344     -0.00092        -0.819777      0.000094      0.000470
Ni	     10.75987      2.09286     -0.00005         0.538953      0.000667     -0.000211
O	     15.00022      4.18446     -0.00048         0.864860     -0.000773      0.000610
O	     16.85785      2.09161     -0.00084         0.080678     -0.000365     -0.000494
O	     10.37863      0.00003     -0.00013        -0.285941     -0.000737     -0.002048
O	     12.67150      2.09190      0.00015        -0.356257      0.002095      0.000271
O	      6.47744      2.09349      2.09213         0.234512     -0.000385      0.000406
O	      8.42824      2.09340     -0.00046        -0.034491      0.000584     -0.001558
O	      1.85578      4.18489     -0.00104        -0.697176     -0.001452      0.001545
O	      4.18404      2.09296     -0.00130         0.432115     -0.000094      0.000483
