# total energy = -66.33641097 eV
 
CRYSTAL
PRIMVEC
2.038207 4.129808 2.038214 
2.038130 -4.129806 2.038287 
4.209845 0.000005 -4.209700 
PRIMCOORD
12 1
Mn	      0.00198      0.00046      0.00119        -0.010509      0.000547     -0.004480
Mn	      2.03983      0.00045      2.03901         0.002189     -0.000886      0.009651
Ni	      4.11167      2.06532     -2.07049        -0.411656      0.001860      0.401937
Ni	      2.13987     -2.06445     -0.09879         0.413145     -0.001708     -0.401492
O	      6.34233     -0.04168     -0.22476         0.534121     -0.717246     -0.534840
O	      4.14499      2.06536     -0.06551         0.000253     -0.000247     -0.000413
O	      4.30423      0.04266     -2.26298         0.531921      0.716849     -0.534155
O	      3.98539      0.04259      2.13205        -0.531817      0.716787      0.532201
O	      4.14490     -2.06450     -0.06542         0.001062     -0.000147     -0.000424
O	      2.04001      2.06527      2.03935         0.000548      0.000163     -0.000049
O	      1.94714     -0.04179      0.09374        -0.529813     -0.715351      0.531748
O	      2.03994     -2.06437      2.03944         0.000557     -0.000622      0.000317
