# total energy = -64.17691590 eV
 
CRYSTAL
PRIMVEC
0.003815 2.191559 2.080471 
6.303466 6.764072 -4.337617 
-4.081750 2.186489 -2.085999 
PRIMCOORD
12 1
Mn	      6.25861      8.88147     -2.25060        -1.284133     -0.721525      0.567256
Mn	     -1.94552      4.49995     -2.13710         1.288249      0.721806     -0.566825
Ni	      4.24586      8.91269     -4.32355        -0.396186     -0.430231      0.513905
Ni	      0.06730      4.46890     -0.06414         0.396439      0.431827     -0.515894
O	      4.39604      6.91523     -4.42035         1.000564      0.321377     -0.467523
O	      0.11280      6.68850     -4.27770        -0.001880     -0.001404      0.001360
O	      2.24085      9.06600     -4.52376         0.301986      1.096545     -0.535989
O	     -2.08682      4.35220     -0.07714        -0.042899      0.457234     -0.225100
O	     -0.08674      4.27481     -2.04785        -1.002841     -0.321020      0.467099
O	      2.15571      6.69117     -2.19449        -0.001721     -0.001532      0.001611
O	      0.09651      2.26570      0.02712         0.043547     -0.456640      0.222621
O	      2.07233      4.31520      0.13604        -0.301125     -1.096439      0.537479
