# total energy = -64.97911457 eV
 
CRYSTAL
PRIMVEC
0.000018 2.073942 2.074332 
4.229398 -4.181965 4.182764 
4.229387 4.182012 -4.182746 
PRIMCOORD
12 1
Mn	      4.23191      4.17395     -4.17180         0.007309      0.235407     -0.230368
Mn	      4.23179     -2.08159      2.08515         0.005463     -0.238576      0.234942
Ni	      2.11729     -0.00785      2.08521        -0.003948      0.004920     -0.004675
Ni	      6.34658     -0.00763      2.08512         0.001838     -0.003521      0.003915
O	      2.31264     -2.03700      2.04030         0.212336      0.825434     -0.842305
O	      6.54242     -0.05269      0.05579         0.199867     -0.825950      0.843002
O	      4.23215     -2.09957      4.17731         0.001883      0.005971     -0.006511
O	      6.15123     -2.03682      2.04028        -0.216695      0.822905     -0.840354
O	      4.23197      4.27419     -2.19819        -0.000702      0.882871     -0.865455
O	      1.92171     -0.05279      0.05580        -0.205416     -0.827217      0.844234
O	      4.23202      2.08231     -0.00621        -0.001326      0.002601     -0.003926
O	      4.23182     -0.10771      2.18578        -0.000610     -0.884845      0.867501
