# total energy = -66.84156465 eV
 
CRYSTAL
PRIMVEC
2.010777 4.085874 2.072446 
4.115165 -4.134073 0.002526 
4.103738 -0.008922 -4.209688 
PRIMCOORD
12 1
Mn	     10.21299     -0.05641     -2.12184         0.580206      0.085912     -0.426728
Mn	      2.07983      2.04014     -0.03449        -0.058558      0.087686      0.529709
Ni	      8.14999     -2.09056     -2.10309        -0.383077      0.114874     -0.286006
Ni	      6.09113      2.01290     -0.04689         0.097765     -0.206990      0.078509
O	      6.11944     -0.11345      0.10974         0.036052      0.011369      1.035133
O	      6.11998     -2.05604     -1.91648         0.261443     -0.356755      0.939923
O	      3.98841      2.00656     -0.05381         0.112032      0.203525     -1.062113
O	      4.10490     -0.03678     -2.29175        -0.224432      0.423464     -0.907521
O	      8.32346     -0.05983     -2.13665         0.564921     -0.978276      0.120999
O	      4.18619     -2.18611     -0.02450         0.901885     -0.451531      0.342689
O	      6.14229      2.13888     -2.18959        -1.178588      0.458566     -0.094282
O	      1.96033      0.13318      0.02201        -0.709648      0.608156     -0.270314
