# total energy = -65.83760465 eV
 
CRYSTAL
PRIMVEC
4.121054 0.000014 -0.000213 
-2.060154 4.110148 -6.169201 
-2.060628 4.121605 2.063972 
PRIMCOORD
12 1
Mn	      0.00240      8.17110     -4.13325         0.000597      0.259781     -0.747815
Mn	     -2.05857      4.13977     -2.03145         0.000755      0.372388      0.572861
Ni	      0.00229      2.01403     -2.03975        -0.002876     -0.485280      0.357261
Ni	      0.00196      4.19569     -4.13241        -0.002598      0.242365     -0.237491
O	     -2.05832      6.08272     -1.87934         0.001856     -0.135651      0.586507
O	     -2.05842      4.17967     -0.00170        -0.001564      1.135751      0.030559
O	      0.00245      6.28709     -4.11092        -0.000467     -0.285124     -0.047082
O	     -2.05820      8.19860     -4.07752        -0.000337     -0.039744      0.982667
O	     -2.05862      4.17405     -4.10805        -0.003248      0.013969     -0.108490
O	      2.06239      2.24544     -2.04880         0.003362      0.565515     -0.147288
O	      0.00186      4.04252     -2.08223         0.004711     -0.907684     -0.871647
O	      0.00243      1.88678     -0.16078        -0.000191     -0.736285     -0.370041
