# total energy = -101.51836459 eV
 
CRYSTAL
PRIMVEC
-0.000031 -0.013394 -4.080962 
-2.047259 8.882000 -2.011524 
4.095877 0.000329 -0.000163 
PRIMCOORD
16 1
Li	      0.00044      0.19455     -4.07101         0.000077     -0.001150      0.003256
Li	      2.04831      2.13585     -4.08440        -0.000439     -0.023352      0.008553
Li	      2.04912      7.05403     -4.02217        -0.001011      0.034557     -0.002656
Li	      0.00076      8.84947     -4.03111        -0.000275      0.000312     -0.006158
Ti	      2.04919      4.35112     -2.15316        -0.001310     -0.358576     -0.107794
Ti	      0.00169      6.79274     -1.92748        -0.001533      0.901048      0.034958
Ni	      0.00054      4.28502     -4.10359        -0.000396      0.064787     -0.011888
Ni	      0.00043      1.97693     -2.03096        -0.000495      0.045187      0.006692
O	      2.04811      2.52066     -2.01740         0.000203      0.425331     -0.046586
O	      0.00108      8.54699     -2.00243         0.000994     -0.788994      0.033098
O	      0.00031      4.52052     -2.05653        -0.000628      0.042212      0.008411
O	      2.04811      6.41724     -2.01342        -0.003202     -0.061544      0.003775
O	      0.00039      2.29250     -4.07397         0.001514     -0.086967      0.003991
O	      2.04828      4.41618     -4.06222         0.002176     -0.006788      0.133914
O	      0.00011      0.05419     -2.02909         0.004944     -0.215872     -0.001774
O	      0.00021      6.49798     -4.08614        -0.000620      0.029808     -0.059792
