# total energy = -66.55752865 eV
 
CRYSTAL
PRIMVEC
-0.000026 2.075006 2.074683 
4.116526 -4.268483 4.268001 
4.078934 4.250846 -4.250411 
PRIMCOORD
12 1
Mn	      8.17017      2.05007      2.09860         0.318175     -1.301352      1.301692
Mn	      2.15629      2.11241     -0.03869         0.955405      0.101657     -0.100518
Ni	      6.02962      2.12098     -0.04737        -0.657990     -0.098352      0.098732
Ni	      4.05139      0.04598      4.10203         0.288341      0.873139     -0.871216
O	      6.13492      4.13102      0.01728         0.637537     -1.025880      1.025227
O	      6.29409      2.11680      2.03185         0.096655      1.242994     -1.243321
O	      4.19120     -2.25292      4.32619         0.030312      0.225714     -0.224944
O	      2.02202      4.05175      0.09667        -0.809246     -0.484772      0.485311
O	      4.10530      4.40730     -2.33290        -0.061787      0.779365     -0.779448
O	      1.96903      2.21492      1.93384        -0.399055      0.512293     -0.513483
O	      3.97814      2.10214     -0.02839        -0.291761     -0.157495      0.156890
O	      4.12526     -0.07306      2.14617        -0.106587     -0.667312      0.665078
