# total energy = -66.58280621 eV
 
CRYSTAL
PRIMVEC
2.069894 4.154368 2.015982 
4.110256 -2.060292 -2.020459 
0.000128 4.196526 -4.116099 
PRIMCOORD
12 1
Mn	      0.03031      4.17332     -4.08029         0.504608      0.486742      0.052498
Mn	      4.09408      4.19725     -0.06157        -0.506135     -0.490511     -0.064474
Ni	      4.12353      2.08394     -2.12095         0.161348     -0.369856     -0.443485
Ni	      4.11129      4.22608     -4.04136        -0.163268      0.380674      0.455854
O	      4.06264      4.11392     -1.98398         0.154274     -0.551508      0.198496
O	      4.17196      2.19620     -4.17830        -0.154363      0.549103     -0.196024
O	      4.25647      2.14988     -0.04728         0.643653      0.024209     -0.825839
O	      3.97795     -0.03612     -1.99893        -0.644525     -0.023761      0.823750
O	      2.15280      4.15719      0.07615        -0.253643     -0.416106      1.408752
O	      2.10999      1.90613     -2.05960         0.462245     -0.303084      0.166030
O	      2.01431      6.46452     -2.08243        -0.459783      0.299217     -0.165767
O	      1.97157      4.21344     -4.21796         0.255590      0.414882     -1.409791
