# total energy = -66.16177507 eV
 
CRYSTAL
PRIMVEC
2.057899 4.178087 2.013887 
4.162349 -4.194363 -0.014085 
4.172423 -0.003659 -4.075275 
PRIMCOORD
12 1
Mn	      6.19717     -0.03970      1.96203         0.331034      0.024625     -0.883421
Mn	      6.30805      0.00648     -2.03633         0.418956      0.157494     -0.186855
Ni	      8.27381     -2.11960     -2.05762        -0.343459     -0.012963     -0.129136
Ni	      4.15123     -2.07834     -1.99894        -0.011455     -0.110492      0.505418
O	      6.28403      0.05582     -0.00496        -0.084225      1.004384     -0.143715
O	      6.21697     -1.90132     -2.00668        -0.045142      1.267744     -0.267241
O	      4.22679      2.06532     -0.11062         0.647414      0.051355     -0.525548
O	      4.14063      0.00376     -2.15731         1.678532     -0.067406     -0.522147
O	      8.40059     -0.09692     -2.12372        -0.843964     -1.025359      0.109684
O	      4.10229     -2.30834      0.01792         0.270077     -1.049772      0.029989
O	      6.20626      2.09057     -2.03667        -0.908619     -0.188276      0.854372
O	      1.95168     -0.00693      0.10310        -1.109149     -0.051335      1.158600
