# total energy = -65.20768343 eV
 
CRYSTAL
PRIMVEC
-4.140676 -0.000003 -0.000002 
0.000001 -0.000015 4.065269 
-0.000009 8.332819 -0.000039 
PRIMCOORD
12 1
Mn	     -0.00000      0.01379      0.00070        -0.000028      1.225008     -0.000048
Mn	     -2.07035      2.16856      0.00068        -0.000039     -0.273041      0.000765
Ni	     -2.07036      6.07033      0.00069         0.000040     -0.405401     -0.000133
Ni	     -0.00002      6.19114      2.03333        -0.000024     -0.081578      0.000576
O	     -2.07034      2.08872      2.03334        -0.000022      0.422115     -0.000571
O	     -0.00003      4.32452      2.03334         0.000013      0.101830      0.000350
O	     -2.07036      6.21180      2.03330         0.000022     -0.314596      0.000414
O	     -0.00001      1.94873      0.00069         0.000016     -1.029823     -0.000374
O	     -2.07038      4.02789      0.00071         0.000048      0.262806     -0.000433
O	     -0.00001      8.15891      2.03330        -0.000023     -0.800893     -0.000362
O	     -0.00002      6.38371      0.00067        -0.000020      0.331262      0.000058
O	     -2.07035      0.12118      0.00068         0.000017      0.562312     -0.000241
