# total energy = -66.56891160 eV
 
CRYSTAL
PRIMVEC
2.016857 4.123864 1.990651 
3.964033 -2.032089 -1.979465 
0.005406 4.144613 -4.027319 
PRIMCOORD
12 1
Mn	      1.97981      4.03483      1.89279        -0.019816      0.740017      0.307793
Mn	      1.92936      2.02988     -3.88139        -0.370055     -0.709167     -0.992740
Ni	      0.01852      1.99006     -1.92021        -0.551897      0.095576      0.475352
Ni	      3.86589      4.06849     -3.92323         0.127222      0.763522     -0.518713
O	      3.90167      4.22681     -2.00168         1.345952      0.268428     -0.537642
O	      3.77880      2.07301     -3.98441         0.492166     -0.139124     -0.956842
O	      3.98544      1.97308      0.08647         0.842028     -1.214222      0.887895
O	      3.90889     -0.17381     -1.91561        -0.012609     -1.296094     -0.132875
O	      1.91301      4.04904      0.11287         0.100478      0.739101      0.412025
O	      1.95793      2.03277     -2.08461        -0.669110     -0.387736      0.391982
O	      2.04373      6.17449     -1.96893        -0.958083      1.169137      0.792283
O	      1.86361      3.89956     -3.91687        -0.326275     -0.029437     -0.128517
