# total energy = -66.15804554 eV
 
CRYSTAL
PRIMVEC
2.154610 4.311774 2.098231 
4.232731 -2.123751 -2.085803 
0.008095 4.326534 -4.233893 
PRIMCOORD
12 1
Mn	      0.01700      0.12671     -0.12900         1.595417      0.160945      0.318582
Mn	      2.23061      0.17770     -2.15832        -0.678426     -0.095864     -0.845643
Ni	      2.24323      2.34182     -4.24047        -0.268235     -0.676759      0.247937
Ni	      4.40546      4.47389     -4.30058         0.232164     -0.433178      0.295778
O	      4.33516      4.47541     -2.09172         0.179324      1.231784      0.327535
O	      4.39468      2.32976     -4.46226        -1.282126      1.133186     -0.665218
O	      4.54148      2.30023     -0.00129        -0.276853      0.409098      0.712425
O	      4.23694     -0.09437     -2.12834        -1.257236      0.178931      0.850070
O	      2.35067      4.43110      0.08905         0.974267     -0.342234      0.473942
O	      2.21981      2.03096     -2.17499         0.071258     -0.660949     -0.930121
O	      2.19627      6.88243     -2.19952         0.388145      0.126762     -0.368574
O	      2.12141      4.45094     -4.46414         0.322300     -1.031722     -0.416713
