# total energy = -33.16053206 eV
 
CRYSTAL
PRIMVEC
-0.000622 2.013215 2.015433 
2.000338 2.053493 -4.071773 
-4.026269 2.049773 -2.050784 
PRIMCOORD
6 1
Mn	      0.00007      0.00146      0.00058         0.592296     -1.844979      1.292213
Ni	     -1.96300      1.98240     -0.01678        -0.838786      0.068743      0.215988
O	     -1.98051      4.10421     -4.10836         1.078994      1.163706     -1.334141
O	     -2.08417      1.98333     -1.98062        -0.468887     -1.048669      0.972563
O	      0.10861      3.98372     -2.02292         0.478441      1.331078     -1.391283
O	      0.00485      1.86247      0.10467        -0.842059      0.330121      0.244660
