# total energy = -62.66379232 eV
 
CRYSTAL
PRIMVEC
0.083855 2.170244 2.275485 
1.956465 -2.202563 0.111323 
9.271482 13.279082 0.033408 
PRIMCOORD
12 1
Mn	      0.47986      1.87900      2.19178         0.577689      0.482174     -0.287774
Mn	      7.11435      6.94837     -6.50856        -0.601112     -0.474567      0.292084
Ni	      7.37684     11.13946     -6.71221        -0.029456     -0.015027      0.013939
Ni	      9.49320     10.96160     -8.78596         0.024948      0.016423     -0.017455
O	      9.61556     13.06584     -8.64302         0.219505      0.177418     -0.024452
O	      7.25217      9.03567     -6.85507        -0.211587     -0.163338      0.019245
O	      9.37113      8.86356     -8.83031         0.007952      0.009271     -0.005724
O	      7.26041      7.19291     -4.44216         0.682574      0.563440     -0.284647
O	      3.97002      4.20960     -2.16316         0.082104     -0.090746      0.004939
O	      5.92111      4.28118     -3.77193        -0.393035     -0.247181      0.380895
O	      2.28784     -0.56487      0.23615        -0.670984     -0.599365      0.293415
O	      3.55873      2.39835     -0.46567         0.311400      0.341498     -0.384465
