# total energy = -66.66447379 eV
 
CRYSTAL
PRIMVEC
2.123232 4.248981 2.067675 
4.171089 -2.092823 -2.055427 
0.007977 4.263526 -4.172234 
PRIMCOORD
12 1
Mn	      0.01639      0.06095     -0.06451         0.985620      0.421011     -0.048795
Mn	      2.13519      0.11068     -2.12602        -0.283525     -0.025165     -0.659594
Ni	      2.14745      2.21223     -4.14797        -0.234391     -0.415687      0.220121
Ni	      4.27808      4.34453     -4.17623         0.223891     -0.341913      0.204740
O	      4.20981      4.34601     -2.03124         0.143977      1.309010      0.203015
O	      4.26762      2.26240     -4.33324        -1.242833      0.906592     -0.578231
O	      4.41017      2.23372     -0.00125         0.059034      0.192325      0.952879
O	      4.11443     -0.09164     -2.06679        -0.937103     -0.329505      0.818107
O	      2.28270      4.30298      0.08647         0.713953     -0.336145      0.758805
O	      2.15562      1.97223     -2.11211        -0.069624     -0.729250     -0.989071
O	      2.13276      6.68343     -2.13592         0.447187      0.388575     -0.316103
O	      2.06007      4.32224     -4.33506         0.193815     -1.039848     -0.565873
