# total energy = -101.44531177 eV
 
CRYSTAL
PRIMVEC
0.000017 2.096420 2.096283 
8.483082 -2.100418 2.100471 
0.015730 4.231644 -4.231376 
PRIMCOORD
16 1
Li	      0.25544      0.17578     -0.17378         0.043504     -0.011923      0.012262
Li	      1.90531      2.28516     -0.18699        -0.045510     -0.009784      0.009670
Li	      0.23112      1.94463     -1.94264         0.044317      0.007983     -0.008445
Li	      1.88136      4.05357     -1.95583        -0.046449      0.012515     -0.011203
Ti	      4.01352      0.00262     -0.00075        -0.956396     -0.012615      0.012615
Ti	      6.60649      2.12673     -0.02846         0.954879      0.008664     -0.008995
Ni	      4.09189      2.12502     -2.12288         0.089442      0.009133     -0.007867
Ni	      6.52739      0.00437      2.09400        -0.084553     -0.009580      0.008206
O	      4.30316      2.00774      0.09052         0.029225     -0.111683      0.111534
O	      4.42278      0.08943      2.00885        -0.030953      0.110858     -0.110832
O	      6.31652      0.12141     -0.11945        -0.026343      0.113308     -0.111724
O	      6.19697      2.03966     -2.03773         0.031135     -0.110687      0.111439
O	      8.41866     -0.00236      2.10074         0.188776      0.013117     -0.014617
O	      2.20075      2.13128     -2.12966        -0.184954     -0.011128      0.011091
O	      8.34809      2.15097     -0.05294        -0.920883      0.001207     -0.001966
O	      2.27193     -0.02217      0.02415         0.914763      0.000614     -0.001168
