# total energy = -133.85908909 eV
 
CRYSTAL
PRIMVEC
4.145263 0.000034 4.145655 
-4.124353 4.131321 -0.020876 
-8.302767 -4.206014 4.157861 
PRIMCOORD
24 1
Mn	     -5.17227      0.99806      3.10005         0.053282      0.009675      0.122611
Mn	     -5.19033     -3.16998      7.26169         0.126235     -0.020931      0.043801
Mn	     -3.11037     -1.06801      3.11009         0.003663     -0.110677     -0.002554
Mn	     -9.32508     -1.10439      5.17842        -0.010216      0.114647      0.005298
Ni	     -3.09306      1.01671      1.03878         0.220320      0.002882      0.225951
Ni	     -7.25272      0.97907      5.16106        -0.261158     -0.002399     -0.256197
Ni	     -7.25271     -1.10493      7.25133         0.037259     -0.036246      0.044648
Ni	     -1.03779     -1.06760      5.18290         0.043577      0.044136      0.043411
O	     -5.07496     -0.96787      3.10793         0.474872      0.675204     -1.221399
O	     -1.02025      3.20154      2.98518         1.209598      0.667538     -0.506563
O	     -7.40096     -1.06907      5.18607        -0.373348      1.204577      1.211909
O	      1.02710     -1.03215      5.33167        -1.189103      1.130184      0.381044
O	     -5.20804     -3.28129      5.30488         1.300483     -0.448930      0.571486
O	     -0.99251      0.99143      5.31006         1.039116     -1.220903      0.408808
O	     -3.25454     -3.17734      7.22688        -0.536051     -1.214580     -1.217069
O	     -3.21550      0.88623      3.11812        -0.603125     -0.429551     -1.168512
O	     -5.18214     -1.20427      7.35945        -1.216480     -0.672136      0.474324
O	     -1.14595     -1.16758      3.11247        -0.504861     -0.672816      1.214478
O	     -3.10265     -1.10375      5.03463         1.208537     -1.202160     -0.381264
O	     -2.94705      3.06568      1.01324         0.389293     -1.135971     -1.188568
O	     -5.20742      1.00501      5.03570        -1.220827      1.213456     -0.535229
O	     -1.01463      1.14720      0.91484        -1.170893      0.429928     -0.597753
O	     -7.12874      1.10879      3.08198         0.568721      0.453889      1.290452
O	      1.17676      1.04268      3.13921         0.411107      1.221182      1.036885
