# total energy = -90.48299010 eV
 
CRYSTAL
PRIMVEC
0.000166 2.104137 -2.104109 
-0.000275 2.104131 2.104102 
15.977079 -0.000614 -0.001729 
PRIMCOORD
16 1
Li	      1.98155      2.10699      0.00054         0.021479     -0.001012     -0.000792
Li	      6.06772      2.10590     -0.00044        -0.030867      0.001295     -0.000495
Li	      7.90897      2.10410      2.09948        -0.037176      0.001134      0.000418
Li	     13.99433      2.10557     -0.00435         0.002251      0.000058      0.001320
Mn	      0.01390      0.00260     -0.00089         0.035160     -0.000194     -0.000343
Mn	      3.95586      0.00257      0.00073         0.083889     -0.000456     -0.001751
Ni	      9.94600      2.10392     -0.00602        -0.034488      0.001191      0.000608
Ni	     12.09808      2.10440      2.09820         0.151320      0.000472      0.000771
O	     14.12171      0.00173     -0.00377         0.095558      0.000389     -0.000374
O	      0.03206      2.10683     -0.00082        -0.017054     -0.002111      0.000197
O	     10.05942      2.10383      2.09764        -0.113796      0.001265      0.004690
O	     11.93283      2.10428     -0.00613         0.019201      0.000786      0.000622
O	      5.78139      0.00223      0.00035        -0.045940     -0.001008     -0.001196
O	      8.07455      2.10386     -0.00544        -0.070829      0.001266      0.000535
O	      1.97737      0.00289      0.00047        -0.080546     -0.001443     -0.001688
O	      3.92991      2.10677      0.00085         0.021839     -0.001631     -0.002523
