# total energy = -67.61328825 eV
 
CRYSTAL
PRIMVEC
-2.027658 4.159414 -2.027344 
1.970301 4.101796 1.969333 
2.007036 0.029500 -6.003321 
PRIMCOORD
12 1
Mn	      0.00084      0.00093     -0.00109         0.143257     -1.370813     -0.106440
Mn	     -0.00871      6.08672     -2.03597        -0.223224      1.022064      0.094904
Ni	      1.92177      4.05084     -1.97748         0.021243     -0.041833      0.790192
Ni	      1.91552      2.03798     -3.89901         0.346725     -0.622014     -0.427552
O	     -0.02618      4.14881     -6.02273        -1.100077      1.140702     -1.216712
O	      1.83516      6.02114     -1.98925         0.954405     -0.961621     -0.074160
O	      2.05105      4.00411     -3.94350         0.563489     -0.547536      0.712076
O	      1.92498      3.87095      0.03501         0.151033     -0.462842     -0.014664
O	      1.93007      2.08080     -1.89177         0.016837      0.984580     -0.522834
O	     -0.03672      6.23062     -0.13270        -1.066824      0.918964     -0.156222
O	     -0.09168      4.22599     -1.98640        -0.135052      0.193987     -0.104995
O	      0.07474      1.86712     -0.01708         0.328187     -0.253638      1.026407
