# total energy = -66.44340725 eV
 
CRYSTAL
PRIMVEC
0.000203 2.032577 2.030854 
6.097272 6.158001 -4.121160 
-4.072387 2.061091 -2.059703 
PRIMCOORD
12 1
Mn	     -4.00581      2.03067     -2.02596        -1.438835     -0.278968     -0.287646
Mn	     -0.01030      6.05737     -2.05149        -0.460129      0.186817      0.243443
Ni	      3.99322      8.07851     -4.06763         0.495336     -0.137250      0.135896
Ni	      2.00747      4.04464     -2.04026         0.202046     -0.210269     -0.086872
O	      4.12892      6.07711     -4.06667         1.043814      1.465836     -1.296042
O	      0.00506      5.94853     -3.94449        -1.228702     -0.060863     -0.191350
O	      1.98517      8.20514     -4.19218         1.413049      1.160097     -0.771035
O	     -2.13744      4.00145      0.00310        -0.424572     -1.297489      1.282577
O	     -0.00533      4.14714     -2.14190         0.943208      0.061981     -0.284247
O	      1.87221      6.04619     -2.04066         0.189138     -1.117749      1.307625
O	     -0.00030      1.91068      0.09338        -1.074368     -0.863861      0.879894
O	      2.13298      4.05838     -0.05194         0.340015      1.091720     -0.932241
