# total energy = -66.08198588 eV
 
CRYSTAL
PRIMVEC
-2.079384 4.265522 -2.079062 
2.020564 4.206433 2.019571 
2.058236 0.030253 -6.156467 
PRIMCOORD
12 1
Mn	      0.00088      0.00098     -0.00114         0.678563      0.046342     -0.892875
Mn	     -0.00916      6.40124     -2.14117        -0.337895     -0.202535      0.668182
Ni	      2.02107      4.26015     -2.07966        -0.349160     -0.015306      0.189209
Ni	      2.01450      2.14328     -4.10048         0.165819      0.133192      0.017050
O	     -0.02754      4.36318     -6.33393        -1.197600      0.884991     -0.381410
O	      1.92998      6.33226     -2.09204         0.007554     -0.976192     -0.147650
O	      2.15703      4.21101     -4.14727         0.547937     -0.859144      1.182583
O	      2.02445      4.07097      0.03681         0.126345     -0.692714     -0.228370
O	      2.02980      2.18832     -1.98952         0.083231      0.872970     -0.178066
O	     -0.03862      6.55257     -0.13955        -0.814758      0.437215     -1.069634
O	     -0.09641      4.44435     -2.08904         0.249839      0.776206     -0.120929
O	      0.07860      1.96359     -0.01796         0.840126     -0.405023      0.961909
