# total energy = -65.21585163 eV
 
CRYSTAL
PRIMVEC
2.224324 4.278714 2.147528 
4.347108 -2.092660 -2.139990 
0.027840 4.273789 -4.313039 
PRIMCOORD
12 1
Mn	      0.28194      0.27296     -0.19348        -2.473233     -1.524546      0.777995
Mn	      2.29027      0.05977     -2.25635         0.334398      0.466093     -0.408190
Ni	      2.28361      4.49074     -2.20713         0.025464     -0.096907      0.392766
Ni	      2.30292      2.23028     -4.47063         0.379216      0.019998      0.859089
O	      4.48555      4.49464     -2.09360        -1.366668      0.665984      1.273190
O	      4.62273      2.28981     -4.65129         0.358695     -0.068668     -1.085140
O	      4.75604      2.36216      0.02057         0.444638      1.436068      0.215653
O	      4.37735     -0.06759     -2.24605        -0.987860      0.714639      0.138957
O	      2.46992      4.46122      0.07338         1.721168     -0.262726     -0.827161
O	      2.33374      2.14893     -2.24480        -0.263769     -0.057398     -1.627347
O	      2.35325      6.80828     -2.28628         1.374186      0.008539      0.135423
O	      2.16298      4.49467     -4.56605         0.453763     -1.301077      0.154764
