# total energy = -102.91157563 eV
 
CRYSTAL
PRIMVEC
0.000001 2.098897 2.098937 
4.164295 -4.344032 4.344102 
4.089884 4.305620 -4.305695 
PRIMCOORD
16 1
Li	      0.15821      0.00417     -0.00286        -0.024681      0.002504     -0.002910
Li	      2.19043      1.91063      0.18933        -0.010756     -0.021558      0.021652
Li	      3.98599      0.19186     -0.19070         0.010216      0.022464     -0.022257
Li	      6.01913      2.09919      0.00110         0.022830     -0.003310      0.002780
Ti	      4.05738     -2.24543      2.24720        -0.189965     -0.100941      0.100544
Ti	      6.28456      0.00531      2.09492         0.194297      0.100722     -0.100537
Ni	      4.12129      2.05533     -2.05404         0.014628      0.036047     -0.035948
Ni	      2.05546      0.04753      2.05268        -0.011701     -0.034377      0.034457
O	      4.12385      2.17237     -0.07222        -0.014090     -0.127316      0.127305
O	      4.21974     -0.20013      2.30048         0.094042     -0.067536      0.066870
O	      6.19452     -0.14824      0.14960         0.018481     -0.134929      0.134470
O	      4.14843     -2.09188      4.19224        -0.020880      0.133062     -0.133438
O	      6.12231     -2.03997      2.04133        -0.094837      0.066879     -0.065855
O	      3.99047      4.22122     -2.12102        -0.305608      0.077528     -0.077592
O	      2.05312     -0.06957      0.07079         0.014371      0.127801     -0.126859
O	      2.18717     -2.11806      2.11942         0.303653     -0.077041      0.077318
