# total energy = -65.56704936 eV
 
CRYSTAL
PRIMVEC
2.161657 4.419936 2.133569 
4.248631 -2.177983 -2.121580 
0.005794 4.442175 -4.316460 
PRIMCOORD
12 1
Mn	      0.11265      0.21505      0.04076         0.796359     -1.555700     -2.606795
Mn	      2.21634      2.33181     -4.45873        -0.220626      1.133905      1.041538
Ni	      0.02127      2.28607     -2.20583         1.351276     -0.220798      0.263994
Ni	      4.44092      4.67365     -4.50679        -0.255071     -0.139862      0.309975
O	      4.48202      4.85552     -2.29942         0.277377      0.615036     -0.912884
O	      4.34088      2.38136     -4.57706        -1.366984      0.479516      1.028003
O	      4.57825      2.26657      0.09933         0.693025     -0.357134     -0.076151
O	      4.49031     -0.19966     -2.20054        -0.322951      1.145701      0.362591
O	      2.19755      4.65132      0.12966        -0.022358      0.893043      0.524465
O	      2.24917      2.33513     -2.39469        -1.190893     -0.107385     -1.200686
O	      2.34773      7.09291     -2.26180         0.260706     -0.303173      1.053954
O	      2.14081      4.47960     -4.49949         0.000139     -1.583149      0.211994
