# total energy = -67.24303005 eV
 
CRYSTAL
PRIMVEC
-1.996622 4.095750 -1.996313 
1.940143 4.039013 1.939190 
1.976316 0.029049 -5.911433 
PRIMCOORD
12 1
Mn	      0.00081      0.00090     -0.00105        -0.313155     -2.537085     -0.023387
Mn	     -0.00844      5.90183     -1.97412        -0.226085      2.115207     -0.092349
Ni	      1.86339      3.92778     -1.91741         0.568528     -0.078596      1.124482
Ni	      1.85733      1.97606     -3.78057         0.535098     -1.255083     -0.742891
O	     -0.02539      4.02277     -5.83977        -1.272200      1.276042     -1.529125
O	      1.77941      5.83823     -1.92882         1.753174     -0.727000     -0.168597
O	      1.98874      3.88248     -3.82370         0.567347     -0.092460      0.424570
O	      1.86651      3.75336      0.03394         0.161962     -0.298318      0.189475
O	      1.87144      2.01759     -1.83430         0.040187      0.787548     -0.681847
O	     -0.03560      6.04135     -0.12867        -1.220961      1.219408      0.512415
O	     -0.08889      4.09761     -1.92606        -0.438800     -0.443710     -0.142809
O	      0.07247      1.81040     -0.01656        -0.155096      0.034048      1.130063
