# total energy = -65.67304290 eV
 
CRYSTAL
PRIMVEC
-1.982400 3.945721 -1.979666 
1.957323 3.920476 1.954441 
2.007333 0.012592 -5.938669 
PRIMCOORD
12 1
Mn	      3.75471      3.75816     -3.77181         1.794398      0.002853     -0.353375
Mn	     -0.00185      5.64132     -1.91403        -2.036227      2.425263     -0.661879
Ni	      0.01391      1.88667     -1.90554        -0.846145     -1.358553     -0.495036
Ni	      1.91314      3.75882     -1.93482         0.973472     -0.068125      1.341778
O	      0.00597      3.77755     -5.80932        -1.319088      0.036530     -1.767538
O	      1.74616      5.60912     -1.87607         2.816385      0.211850     -0.009327
O	      2.03468      3.76261     -3.78564        -0.565432     -0.016589      0.174807
O	      1.85795      3.65861      0.04716         0.389057      0.393808      0.518436
O	      1.85160      1.90692     -1.77305         0.736771     -0.104270     -1.489074
O	      0.01925      5.74975     -0.12077        -0.129698      1.201448      2.161211
O	     -0.07288      3.85636     -1.88137        -0.594111     -1.423001     -0.288995
O	      0.09949      1.76609     -0.04201        -1.219382     -1.301215      0.868992
