# total energy = -65.36304559 eV
 
CRYSTAL
PRIMVEC
0.000214 2.146071 2.144252 
6.437729 6.501848 -4.351275 
-4.299779 2.176177 -2.174712 
PRIMCOORD
12 1
Mn	     -0.16587      0.08760     -0.08381         3.954729      1.361656     -0.215700
Mn	     -0.01148      6.75271     -2.28698         0.984524     -0.579101      0.265109
Ni	     -1.98611      2.50402     -0.18329        -0.836830     -0.358069      0.104391
Ni	      2.23791      4.50893     -2.27446        -0.558964      0.560614     -0.363663
O	      4.60289      6.77471     -4.53350        -2.719408      1.384907     -1.039011
O	      0.00564      6.63138     -4.39729        -1.170333     -1.246661      1.521152
O	      2.21305      9.14704     -4.67342         0.631218     -1.542839      0.269157
O	     -2.38280      4.46078      0.00346        -0.207480     -0.646652      0.670947
O	     -0.00594      4.62320     -2.38777         1.592375      1.482082     -1.465884
O	      2.08712      6.74025     -2.27491        -1.524656     -1.596125      1.516416
O	     -0.00033      2.13002      0.10409        -0.852081     -0.199345      0.215474
O	      2.37783      4.52425     -0.05790         0.706906      1.379533     -1.478387
