# total energy = -66.32363702 eV
 
CRYSTAL
PRIMVEC
-2.086191 4.152303 -2.083313 
2.059800 4.125737 2.056768 
2.112429 0.013251 -6.249594 
PRIMCOORD
12 1
Mn	      2.09836      0.03625     -6.23387        -0.381314      0.008011      0.357337
Mn	     -0.00205      6.24750     -2.11970        -0.113838     -0.166721      0.262040
Ni	      0.01540      2.08940     -2.11029         0.021209      0.085995      0.029469
Ni	      2.11871      4.16272     -2.14272        -0.053467     -0.009520     -0.076834
O	      0.00661      4.18346     -6.43355        -0.636772     -0.016543     -0.744127
O	      1.93379      6.21183     -2.07765        -0.428222     -1.100382      0.941521
O	      2.25332      4.16692     -4.19242         0.874497      0.006824      0.687741
O	      2.05759      4.05174      0.05222        -0.002856      0.127742     -0.111642
O	      2.05056      2.11183     -1.96357        -0.957138      1.111172      0.399502
O	      0.02132      6.36758     -0.13375         0.977849      0.340273     -0.699923
O	     -0.08071      4.27073     -2.08353         0.069648     -0.051991     -0.017632
O	      0.11018      1.95586     -0.04653         0.630405     -0.334859     -1.027451
