# total energy = -64.76656955 eV
 
CRYSTAL
PRIMVEC
-2.131110 4.371629 -2.130780 
2.070827 4.311071 2.069809 
2.109436 0.031005 -6.309613 
PRIMCOORD
12 1
Mn	      0.00092      0.00103     -0.00120         0.811754      2.004379     -2.760179
Mn	     -0.00962      6.72367     -2.24903         0.048110     -0.872792      0.515721
Ni	      2.12287      4.47473     -2.18441        -0.658913      0.031456      0.280775
Ni	      2.11596      2.25124     -4.30702        -0.180099      0.681165      0.272477
O	     -0.02893      4.58296     -6.65296        -1.019711      0.664497      1.280803
O	     -0.04363      2.34015     -4.26722        -0.472123     -1.285738     -0.230215
O	      2.26567      4.42312     -4.35617         0.650757     -1.119794      1.351025
O	      2.12642      4.27602      0.03867        -0.099634     -0.827586     -0.333414
O	      2.13204      2.29854     -2.08973         0.018991      1.164143      0.367554
O	     -0.04056      6.88262     -0.14658        -0.789585     -0.956174     -1.454231
O	     -0.10127      4.66821     -2.19426         0.376797      0.802371     -0.023388
O	      0.08256      2.06250     -0.01887         1.313656     -0.285930      0.733073
