# total energy = -65.77846544 eV
 
CRYSTAL
PRIMVEC
2.064881 4.264891 2.064697 
2.104816 -4.305265 2.104564 
4.189219 -0.000062 -4.188809 
PRIMCOORD
12 1
Mn	      0.10685     -0.08495     -0.02159         0.374828      1.702308      0.093449
Mn	      2.13339      2.17593     -0.02555         0.299085     -0.833015     -0.085383
Ni	      4.24593      2.17610     -2.13845        -0.452829     -0.565585      0.468354
Ni	      4.28223     -0.01954     -0.02780        -0.265534      0.164179      0.054991
O	      6.49362     -0.03288     -0.02747         0.023636     -1.061398     -0.079366
O	      4.12654      2.05782     -0.01492        -1.257670     -0.616157     -1.618465
O	      4.28129     -0.00642     -2.23927         0.106101      1.005249     -0.071526
O	      4.25649     -0.19923      2.19655        -0.233722     -0.640679      0.140970
O	      4.26902     -2.09739      0.12739         1.441988      0.855274      1.065522
O	      2.12565      2.32810      2.01611        -0.929437     -0.381833     -1.134840
O	      2.05695      0.15983     -0.00213        -0.177086      0.640115      0.209130
O	      2.23808     -2.36650      2.12825         1.070641     -0.268459      0.957164
