# total energy = -65.81197047 eV
 
CRYSTAL
PRIMVEC
2.019579 4.184096 2.056441 
4.169989 -4.250464 0.001553 
4.154126 -0.014364 -4.199390 
PRIMCOORD
12 1
Mn	      0.07465      0.00108     -0.02054        -0.397017      0.375439     -0.282645
Mn	      2.10337      2.10932     -0.05002        -0.908689     -0.306847     -0.113827
Ni	      4.13795      2.09161     -2.11992        -0.168543     -0.290593      0.081760
Ni	      6.31103     -0.03150     -2.10163         0.040429      0.151317      0.377208
O	      6.23626     -0.20826      0.04123         0.216816     -0.823247     -0.081873
O	      6.28235     -2.10854     -1.98004         1.259492      0.945062      0.841616
O	      4.01298      2.07051     -0.04401        -0.325813      0.270769     -1.234001
O	      4.23152     -0.00858     -2.28940         0.951449      1.079511     -0.708476
O	      8.45761     -0.09159     -2.15642        -0.196928     -1.220290     -0.053291
O	      4.26776     -2.32739     -0.02011         0.987057     -0.353911      0.998397
O	      6.26703      2.17587     -2.25508        -1.201874     -0.455188     -0.668399
O	      1.99060      0.11904      0.02844        -0.256380      0.627979      0.843531
