# total energy = -64.71008513 eV
 
CRYSTAL
PRIMVEC
-1.958357 4.015232 -1.957677 
1.927648 3.983444 1.926033 
1.944555 0.016471 -5.827225 
PRIMCOORD
12 1
Mn	     -1.85861      3.81468     -1.86120        -2.393970     -0.487290     -0.200053
Mn	     -0.02033      5.70735     -1.87026        -2.542790      3.494652      1.920324
Ni	      1.83650      5.70631     -3.72624         1.437809      1.690001     -2.674753
Ni	      1.82389      3.80145     -1.85148         1.400630     -2.166665      1.338341
O	     -0.01439      3.77627     -5.66412        -0.889709     -1.026276     -1.858026
O	      1.71349      5.65552     -1.87324         2.680219      0.802292      0.698247
O	      1.94676      3.85221     -3.70449         1.282622     -0.351619     -0.069527
O	      1.81791      3.64049      0.04697         0.359778     -0.334374      0.918919
O	     -0.01700      5.76163     -3.60322        -0.033423      0.962951     -3.249288
O	     -0.00509      5.85125     -0.08894        -0.203594      1.306692      2.675386
O	     -0.07613      3.95858     -1.84877         0.230474     -2.313641      0.024471
O	      0.05783      1.74890     -0.02302        -1.328045     -1.576724      0.475959
