# total energy = -66.36292403 eV
 
CRYSTAL
PRIMVEC
2.086255 4.135976 2.085925 
2.123061 -4.172676 2.123393 
4.249898 0.000271 -4.249956 
PRIMCOORD
12 1
Mn	      0.11898     -0.00085      0.00531        -1.205238     -0.029057     -0.269381
Mn	      2.21719      2.03624     -0.03865         0.232258      0.631962     -0.572984
Ni	      4.28439      2.03667     -2.10588        -0.372049      0.358451      0.066489
Ni	      2.18391     -0.01875      2.08646         0.048992     -0.149301      0.573823
O	      6.59998     -0.00347     -0.07615         0.491507     -1.396678     -1.008953
O	      4.12601      2.04538     -0.04104        -1.030298      0.038580     -0.882171
O	      4.34684     -0.03348     -2.32971         1.099920      1.250524     -0.152804
O	      4.24446     -0.13892      2.24932        -0.844138     -0.844174      0.227548
O	      4.31061     -2.08323      0.14404         0.966166     -0.108399      1.149078
O	      2.12223      2.18000      1.99569        -0.661096     -0.737703     -0.906670
O	      2.02121      0.10113      0.02533         0.151549      0.541922      0.893055
O	      2.27404     -2.21772      2.14806         1.122428      0.443873      0.882970
