# total energy = -103.90662734 eV
 
CRYSTAL
PRIMVEC
-2.098234 4.086391 -2.099706 
2.083723 4.070514 2.084132 
6.376981 -0.007136 -2.195184 
PRIMCOORD
16 1
Li	      2.19230      4.07279      1.99853         0.010349     -0.005791     -0.034533
Li	      2.08402      2.03936     -0.01328        -0.011064     -0.008795      0.033262
Li	      0.02794      4.07612     -0.02071         0.010939      0.008689     -0.033578
Li	      2.00375      6.11286      0.05149        -0.008991      0.006318      0.034909
Ti	      2.00707      4.08173     -2.02550        -0.264781     -0.007624      0.271817
Ti	      4.38320      6.11263     -2.30376         0.276289      0.006540     -0.272938
Ni	      4.19996      4.07096     -0.03120        -0.056311      0.002676      0.056000
Ni	      4.28915      2.03712     -2.19841         0.052880     -0.002734     -0.059031
O	      2.22309      6.04868     -2.21353         0.017974     -0.167387      0.101661
O	      2.14144      4.07947     -0.15341        -0.101458      0.005514     -0.265129
O	      4.28711      6.18134     -0.15273        -0.105189      0.159950     -0.004804
O	      4.16819      4.14571     -2.11602        -0.023301      0.166531     -0.093678
O	      6.25463      6.11561     -2.17366        -0.284319      0.002525     -0.112506
O	      0.13638      4.07885     -2.15553         0.280371     -0.000996      0.108022
O	      6.28576      3.99728      0.00718         0.101193     -0.157790      0.009054
O	      6.34768      2.02860     -2.07620         0.105417     -0.007625      0.261474
