# total energy = -67.07810626 eV
 
CRYSTAL
PRIMVEC
-2.019242 4.143483 -2.020569 
1.928112 4.051449 1.927499 
1.984129 0.047661 -5.933084 
PRIMCOORD
12 1
Mn	      3.76627      3.97648     -3.85616         1.538527      0.306622     -0.643542
Mn	     -0.03570      5.98475     -2.01603        -0.786081      1.404768      0.514537
Ni	      0.00135      4.02019     -3.92301        -0.893750     -0.400114     -0.366062
Ni	      1.85901      2.01105     -3.81877         0.296605     -1.289634     -0.252386
O	     -0.02654      4.10491     -5.87888        -0.061422      1.082999     -0.524698
O	      1.77154      6.02608     -1.98396         1.549310      1.295154      0.047840
O	      1.95902      3.93505     -3.88821        -0.508330     -0.592539      0.033021
O	      1.87284      3.79362      0.03362         1.104149     -0.189555      1.210222
O	     -0.07184      5.94548     -3.82289        -0.004550     -0.495279     -1.556414
O	     -0.06685      6.12139     -0.15069        -1.184077      0.747766      0.714608
O	     -0.12255      4.15740     -1.96792        -0.971342     -0.996560     -0.500191
O	      0.05824      1.82770     -0.01880        -0.079041     -0.873630      1.323065
