# total energy = -65.62806083 eV
 
CRYSTAL
PRIMVEC
1.983185 4.006546 1.982855 
4.051881 -4.062198 0.026084 
4.025636 -0.000134 -4.024683 
PRIMCOORD
12 1
Mn	      9.74832     -0.05428     -1.94581         3.756859      0.096570     -0.881839
Mn	      5.87766     -1.99753      0.00071        -0.027886     -1.903524      2.020771
Ni	      7.81801     -0.05435     -0.01624         0.388656      0.360988      1.642437
Ni	      7.80794     -1.99771     -1.92915         1.068482     -1.361914     -0.996619
O	      5.85302     -0.16417      0.09318         0.806239      0.726384      0.875847
O	      5.87798     -1.99416     -1.79484         0.854357     -0.952131     -1.557033
O	      3.74285      1.93958     -0.02511        -0.453847      1.468541     -0.794406
O	      3.89370     -0.00383     -2.09881        -1.712596      1.149124     -0.369254
O	      7.95294     -0.05132     -1.94569        -0.840758     -0.306375      0.820917
O	      4.01242     -2.10727      0.00995        -0.764094     -0.714075      1.334994
O	      5.84316      2.05248     -2.06353        -1.392668      1.210849     -0.633415
O	      1.85473      0.10961      0.00033        -1.682745      0.225562     -1.462399
