# total energy = -64.84883188 eV
 
CRYSTAL
PRIMVEC
2.079566 4.308376 2.117524 
4.293850 -4.376715 0.001599 
4.277516 -0.014790 -4.324124 
PRIMCOORD
12 1
Mn	      0.39552     -0.00132     -0.08728        -3.282595     -0.380856      0.243444
Mn	      2.23018      2.23649     -0.05304         0.240621     -0.857879     -0.334239
Ni	      4.38742      2.21771     -2.24773        -0.033149     -0.614890      0.190167
Ni	      6.69151     -0.03341     -2.22834        -0.174128      0.036093      0.327977
O	      6.61224     -0.22082      0.04371         0.056099     -0.978048     -0.443158
O	      6.66110     -2.23566     -2.09941         1.061383      1.588271      1.550998
O	      4.25492      2.19534     -0.04666        -1.051460      0.204903     -1.340339
O	      4.48663     -0.00910     -2.42743         1.070385      1.175462     -0.977474
O	      8.96751     -0.09711     -2.28643        -0.839717     -1.184417      0.002565
O	      4.52506     -2.46770     -0.02133         1.658475      0.248948      0.827053
O	      6.64485      2.30706     -2.39103        -1.258779     -0.618816     -0.871321
O	      2.11061      0.12621      0.03015         2.552864      1.381228      0.824327
