# total energy = -67.09040791 eV
 
CRYSTAL
PRIMVEC
1.963662 4.055827 1.963486 
2.001639 -4.094223 2.001399 
3.983865 -0.000059 -3.983475 
PRIMCOORD
12 1
Mn	      5.78873     -3.97040     -1.90444         0.452788     -2.067189     -1.231752
Mn	      1.92936      1.96783     -0.02311        -1.224916      1.368321      0.313835
Ni	      3.83987      1.96799     -1.93394         0.783356      1.173746     -1.324834
Ni	      3.87269     -0.01767     -0.02514        -0.131091     -0.392230      0.610762
O	      5.87260     -0.02974     -0.02485         0.358497     -1.417814      0.115045
O	      3.73189      1.86102     -0.01349         1.151540      0.180427     -0.713725
O	      3.87184     -0.00581     -2.02511        -0.033652      1.330433     -0.266890
O	      3.84942     -0.18017      1.98648         0.236856     -0.278321      0.560153
O	      3.86075     -1.89680      0.11521         1.153041     -0.424339     -0.218468
O	      1.92236      2.10545      1.82329        -1.496285      0.989726      0.808390
O	      1.86023      0.14455     -0.00192        -0.743968     -0.227219     -0.229512
O	      2.02404     -2.14017      1.92471        -0.506167     -0.235542      1.576997
