# total energy = -69.68562006 eV
 
CRYSTAL
PRIMVEC
0.000525 2.041903 2.041954 
18.979177 -0.000870 -0.000818 
0.000114 2.041893 -2.041944 
PRIMCOORD
12 1
Ti	     14.13576      2.04191      2.04035         0.361950      0.001224      0.000477
Ti	     16.85278      2.04104     -0.00123         5.403087      0.000404     -0.001714
Ni	      9.17106      0.00255     -0.00047        -0.580743     -0.001131      0.001507
Ni	     11.61233      2.04310     -0.00098         0.114533     -0.005339     -0.001226
O	     14.30489      2.04189     -0.00165        -0.420146      0.000233      0.001747
O	     16.38462      2.04121      2.04069        -0.832049      0.000050      0.000307
O	      9.68031      2.04421     -0.00055         0.031902     -0.003063      0.001617
O	     12.12289      0.00089     -0.00105         0.150481      0.013009      0.000882
O	      4.75069      2.04313      0.00007        -0.022406     -0.001252     -0.000309
O	      7.28112      0.00309     -0.00003         0.277764     -0.005179     -0.004087
O	     18.59173      2.04067     -0.00142        -4.503769      0.001576      0.001090
O	      2.35526      0.00080      0.00016         0.019396     -0.000532     -0.000291
