# total energy = -74.32020341 eV
 
CRYSTAL
PRIMVEC
-0.000058 2.087501 2.087561 
16.779043 -0.000130 -0.000339 
0.000039 2.087505 -2.087566 
PRIMCOORD
12 1
Ti	      6.43551      2.08708     -0.00251         3.646928      0.000110     -0.000207
Ti	     14.65237      2.08803      0.00126        -0.063573      0.000169      0.000262
Ni	      3.96810      2.08714      2.08632        -0.320614      0.000156     -0.000601
Ni	     10.69854      2.08783     -0.00082        -0.825132      0.000040     -0.000225
O	     12.74085      2.08799      0.00032        -0.193044     -0.000364     -0.000618
O	     14.62190      2.08798     -2.08658         0.141775     -0.000288     -0.000585
O	      8.24068      2.08737     -0.00186        -1.360634     -0.000046     -0.000054
O	     10.53891      2.08784      2.08674         0.596083     -0.000500      0.001003
O	      4.40855      2.08715     -0.00143        -0.580166      0.000282     -0.000136
O	      6.30765      2.08711      2.08525        -0.906505     -0.000277      0.002065
O	     16.48651      2.08776      0.00072        -0.437633      0.000304     -0.000682
O	      2.06114      2.08734     -2.08741         0.302515      0.000415     -0.000221
