# total energy = -100.73394655 eV
 
CRYSTAL
PRIMVEC
0.000176 0.000272 -4.101330 
-2.048307 8.836929 -2.051178 
4.096617 -0.000043 -0.000186 
PRIMCOORD
16 1
Li	     -0.00064      0.34017     -4.09918        -0.001583      0.009861     -0.002494
Li	      2.04743      2.06978     -4.10178         0.000650     -0.034514      0.001469
Li	      2.04751      0.14118     -2.04841        -0.002445      0.034750     -0.005724
Li	     -0.00091      1.87135     -2.04967         0.000315     -0.005971     -0.001246
Ti	      2.04743      4.22796     -2.05155         0.000899     -0.960617      0.002413
Ti	     -0.00091      6.81872     -2.05045         0.000107      0.956946      0.000878
Ni	     -0.00050      4.15720     -4.10089        -0.000556      0.062530     -0.001426
Ni	      2.04764      6.89150     -4.10078         0.000339     -0.063630     -0.000965
O	      2.04755      2.48152     -2.05124         0.000186      0.895323      0.004966
O	     -0.00123      8.56486     -2.04891         0.002979     -0.883085     -0.004157
O	     -0.00074      4.56604     -2.05012        -0.001190      0.049110     -0.000504
O	      2.04739      6.48160     -2.05024         0.000723     -0.060874      0.004768
O	     -0.00069      2.24524     -4.10084        -0.001262     -0.144431      0.002943
O	      2.04775      4.51659     -4.10168         0.000421      0.017746      0.005944
O	      2.04748      8.80344     -4.10030         0.000962      0.145492      0.000114
O	     -0.00064      6.53095     -4.09971        -0.000545     -0.018634     -0.006979
