# total energy = -75.96643635 eV
 
CRYSTAL
PRIMVEC
0.000157 2.096912 2.095297 
6.242680 4.255808 -6.347406 
-4.181569 2.133692 -2.132360 
PRIMCOORD
12 1
Ti	      1.97293      4.22077     -2.12287         0.182371      0.111402     -0.206877
Ti	      4.36625      4.27306     -4.26979        -0.128768     -0.683723      0.652099
Ni	     -2.11123      2.18288     -0.08600        -1.030878      0.088178      0.177075
Ni	     -0.08887      2.07206     -2.07133         0.662844      0.400598     -0.569924
O	     -0.05784      6.48801     -4.38741        -0.530297      1.105244     -1.090784
O	      0.12619      4.25511     -2.15558         0.305713     -1.314501      1.134579
O	      2.14186      4.14651     -4.14373         0.991829     -0.759748      0.747113
O	     -0.06896      2.16103     -0.06424        -1.262005      1.064558     -0.774644
O	      2.13963      2.26495     -2.26082        -1.142880      0.621737     -0.491208
O	      1.98272      6.31692     -6.31439         0.634487      0.056079     -0.087583
O	     -2.10935      2.08975     -2.08960         1.031810     -1.106805      0.854446
O	      4.12722      6.24803     -4.15024         0.285774      0.416981     -0.344292
