# total energy = -126.07931362 eV
 
CRYSTAL
PRIMVEC
-0.022254 6.166114 6.254462 
6.216341 -0.029321 6.261861 
4.126484 4.098025 -0.002325 
PRIMCOORD
27 1
Fe	     10.29285      4.05366      6.27414        -0.606300     -0.482183      0.615779
Fe	      2.09740      2.03150      4.18286         0.038363      0.179013      0.279288
Cu	      2.08912      0.01468      2.09227        -0.082043      0.382303     -0.244237
Cu	      6.18997      2.03082      4.17179        -0.118360     -0.045812      0.084065
Cu	      4.16026      4.08566      4.21107        -0.027858     -0.228142     -0.241776
Cu	      2.05829      4.11465      6.26991        -0.144204     -0.503934      0.296816
Cu	      8.24857      6.14446     10.31792         0.256440      0.210716     -1.051557
Ni	      8.26435     10.18855     10.39594         0.355726     -0.117423      0.080880
Ni	      4.10906      6.18709      6.29696         0.351011      0.471511      0.521826
O	      8.26895      6.11747      8.49279         0.067572      0.081073      0.448638
O	      3.93950      6.18948      8.34345        -0.786188     -0.093567      0.060006
O	      6.18891      8.40108      8.28084         0.109567      0.640406      0.009285
O	      8.09876      8.17930     10.39872        -0.894464     -0.248110      0.039985
O	      2.08002      1.88793      2.26186         0.121108     -0.804913      0.314724
O	      4.33361      4.10945      2.06005         0.746229      0.103517      0.042144
O	      4.15034      2.07216      4.19351         0.223383      0.135521     -0.265514
O	      6.18530      4.09510      4.42065        -0.123776     -0.225955     -0.440810
O	      6.21121      1.80051      6.24007        -0.371410     -0.589044     -0.634432
O	      8.44609      4.01261      6.21770         0.881698      0.188740     -0.680477
O	      2.17564      4.04640      4.16411         0.584267      0.338728      0.593731
O	      4.18232      6.06976      4.25147        -0.233917     -0.723885      0.325851
O	      4.02178      4.15775      6.20373        -1.089563      0.383559     -0.478322
O	      6.14546      6.26172      6.19588        -0.563187      1.022694     -0.679790
O	      6.19959      4.07517      8.32753        -0.055887     -0.038871     -0.013597
O	      1.98915      6.11484      5.96151        -0.046340     -0.833662      0.281570
O	      4.18248      8.32924      6.21855         1.235278      0.023863      0.040002
O	      6.15548      6.22016     10.39707         0.172853      0.773856      0.695922
