# total energy = -77.08128917 eV
 
CRYSTAL
PRIMVEC
4.116524 0.000483 -0.000143 
2.059374 4.129469 -6.331093 
2.058450 4.126279 2.108212 
PRIMCOORD
12 1
Ti	      4.11901      2.13246     -1.94540        -0.001274      0.517745      1.214649
Ti	      6.14496      6.14717     -4.13499        -0.041800     -0.353345     -0.251959
Ni	      4.11837      4.12396      0.00611         0.002824     -0.394393      0.262052
Ni	      4.11692      6.26516     -2.12127        -0.005043      0.116755     -0.051608
O	      4.11770      4.05577     -2.07500        -0.002875      0.212737      1.296422
O	      6.17684      6.23197     -2.18485        -0.001750      0.026163     -0.483202
O	      4.11672      2.06554     -0.05540         0.004632      1.310113     -0.523579
O	      6.17586      4.36974     -0.04289        -0.003748      0.172884      0.003810
O	      2.05798      2.09473     -2.14273         0.004423     -1.174141     -0.814227
O	      6.18020      4.25071     -4.25016        -0.006066     -0.382452     -0.188562
O	      4.13026      6.15936     -4.20621         0.047449      0.105256      0.831532
O	      6.18071      8.05523     -4.31543         0.003228     -0.157320     -1.295328
