# total energy = -189.61987332 eV
 
CRYSTAL
PRIMVEC
-0.006942 6.382559 6.253931 
6.227647 -0.000240 6.246956 
4.163161 4.261874 -0.011389 
PRIMCOORD
27 1
Mn	      4.15871      2.12377      6.18237         0.251571     -0.038735     -1.940415
Mn	      6.21518      6.50947      8.37184        -0.461075      0.734168      0.354261
V	      4.16329      6.42250      6.13655        -1.384973      0.793331     -3.364332
V	      4.11618      4.27132      8.31300        -1.609884      0.141449     -0.089094
Cr	      6.21488      4.26339      2.11192        -1.719032      0.118916     -0.001762
Cr	      8.28625      4.25208      4.24419        -0.849726      0.639817      1.262256
Cr	      4.17025      6.35325      2.05558         1.284582     -1.640037     -1.163293
Cr	      2.12046      4.16297      2.05886         1.591402     -1.474221      0.375365
Cr	      0.04205      4.27275      4.20424         1.226012      0.127152      2.075678
O	      1.99600      2.13699      2.06547        -1.429483     -0.097198      0.090444
O	      4.15397      4.33922      2.07836         0.072926      1.880193      0.153887
O	      4.16494      2.00418      4.31010        -0.119876     -1.468557      1.175314
O	      6.30288      4.25812      4.06972         1.580741     -0.033605     -1.309601
O	      6.11875      2.13128      6.34498        -1.168817      0.109006      1.644641
O	      8.26956      4.22473      6.25069         0.042976      1.928727     -0.186312
O	      2.02657      4.28200      4.01780        -1.724558     -0.071128     -1.321973
O	      4.13462      6.49108      4.20073         0.067763      0.724226      1.453399
O	      4.17378      4.35510      6.33029         0.120429      0.120766      2.499961
O	      6.11483      6.38804      6.28175        -0.091612      0.165449      1.803776
O	      6.24580      4.15209      8.39851        -0.032293      0.253717      0.665705
O	      8.34702      6.33747      8.18822        -0.622543      0.657859     -0.237694
O	      2.29503      6.37668      6.33125         2.241365      0.131173      1.280370
O	      4.20268      8.36654      6.16581        -0.052766     -2.067406     -0.995306
O	      4.07488      6.37920      8.35877         0.640525     -1.454641     -0.135323
O	      6.31345      8.63283      8.34678         2.128367     -0.253005      0.061408
O	      6.16190      6.27932     10.43904        -1.147319     -0.897578     -1.895200
O	      8.38099      8.59024     10.31005         1.165298      0.970164     -2.256158
