# total energy = -75.99365027 eV
 
CRYSTAL
PRIMVEC
-0.000329 2.104642 2.106648 
6.187772 0.040437 -2.148149 
-2.026825 6.408328 -4.305806 
PRIMCOORD
12 1
Ti	      4.35032      4.29362     -4.29303         1.284851      1.210498     -1.203647
Ti	      1.92226      6.44474     -4.34654         0.174600     -0.063195      0.056474
Ni	      4.18761      2.14772     -2.14943        -0.012195     -0.362848      0.366820
Ni	      1.98385      4.19995     -2.09151        -1.320145     -0.216727      0.219248
O	      4.08175      4.37579     -2.26838        -0.328806     -0.630716      0.616911
O	      4.16261      2.00490      0.09873        -0.150524      0.175378     -0.164540
O	      2.12307      6.49529     -2.28540         0.301765      0.026971     -0.031424
O	      2.18369      2.21718     -2.21474         0.829445      0.807116     -0.813399
O	      4.10688      6.25090     -4.14411        -0.582533     -0.827491      0.823897
O	      0.13876      6.38914     -4.28864         0.029084      0.052667     -0.041852
O	     -0.04383      4.30553     -2.19726         0.031391     -0.235824      0.235023
O	     -0.06970      2.11340     -0.00715        -0.256932      0.064169     -0.063512
