# total energy = -65.39827429 eV
 
CRYSTAL
PRIMVEC
0.000350 2.082559 2.085990 
8.547811 -4.180281 4.188500 
2.118376 2.077787 -4.166979 
PRIMCOORD
12 1
Mn	      0.10512     -0.02131      0.01808         1.434280     -0.390225      0.632516
Mn	      6.38159     -2.04171      4.13155        -0.739706      0.143290     -0.150048
Ni	      6.26461      2.11363     -0.02314        -0.016602      0.182603     -0.180494
Ni	      8.55849     -2.06928      2.07253         0.238621     -0.044980      0.056342
O	      2.04949      2.20362     -2.21297        -0.314056      0.845054     -0.842011
O	      6.62924      0.05625     -0.05372         0.737420      0.769503     -0.769889
O	      6.52667     -2.13664      2.14091        -0.294206     -1.134233      1.142481
O	      8.69235      0.00375      2.08395         0.198817      0.677685     -0.722089
O	      8.41609     -2.11197      4.20091        -0.297189     -0.341668      0.184392
O	      1.89731      0.01701     -0.02192        -1.137906     -0.046711      0.000101
O	      4.29372      1.98664      0.09231         0.477994      0.037335     -0.043419
O	      4.24340     -0.06060      2.16056        -0.287468     -0.697653      0.692118
