# total energy = -102.33201674 eV
 
CRYSTAL
PRIMVEC
-0.000024 2.115706 2.115779 
7.856670 -2.121157 2.121203 
0.000137 4.242496 -4.242631 
PRIMCOORD
16 1
Li	      7.85499     -1.99304      1.99353         0.004585     -0.001493      0.000721
Li	      3.92781      4.23796     -0.00793         0.001569     -0.000184      0.004289
Li	      0.00061      1.99528     -1.99508        -0.004591      0.003352     -0.003183
Li	      3.92773      0.00213     -0.00117         0.000631     -0.003773      0.000305
Ti	      1.97351      4.23546     -2.12804         0.116346      0.000930     -0.005590
Ti	      5.88206      2.12477     -0.00147        -0.117311      0.000865      0.003209
Ni	      1.95361      2.11819     -0.00055         0.071010      0.006258     -0.006197
Ni	      5.90180      0.00018      2.11410        -0.070309     -0.007407      0.007106
O	      3.98875      2.11943     -0.00282         0.290573      0.006245     -0.005452
O	      3.86693      4.24112     -2.12656        -0.292126     -0.005732      0.005315
O	      5.88837      2.20025      2.03036         0.004286      0.116291     -0.120971
O	      5.88674      4.15628      0.07420         0.012181     -0.126262      0.124046
O	      7.85597     -0.00147      2.11767        -0.000630     -0.000164      0.000658
O	      1.96896      2.20409     -2.20345        -0.010874      0.127653     -0.124747
O	      7.85624      2.11947     -0.00411        -0.000428      0.000191      0.000526
O	      1.96721     -0.08199      0.08310        -0.004912     -0.116770      0.119964
