# total energy = -183.14558382 eV
 
CRYSTAL
PRIMVEC
-0.026089 6.574623 6.204320 
6.143935 -0.009269 6.189495 
4.096834 4.374157 -0.007718 
PRIMCOORD
27 1
Ti	      4.11909      4.39408      0.07180        -0.247874     -1.454077     -0.720502
Ti	      2.07694      2.28221      0.09530         1.399309      0.934984     -0.581480
Ti	      6.10163      2.29348      3.97644        -0.333714      0.064800     -1.623840
Ti	      6.02832      6.65871      4.19512         1.052065      0.443912      0.579508
Ti	      6.07708      6.46970      8.23940        -0.732952      0.790887     -0.201653
Co	      4.08070      2.35437      6.21485        -1.080170      1.018472     -0.389887
Cu	      2.14622      6.57735      8.24337         0.137480     -0.385701     -0.404581
Cu	     10.09680      6.62419      8.40063        -0.524549     -0.260074      0.303014
Cu	     10.16197      8.74297     10.29668         0.157201      0.187415      0.378084
O	      2.08862      2.28117      2.01432        -1.372300     -0.889207      0.827238
O	      4.21048      4.35283      1.89367         1.326899      0.791531     -0.071311
O	      4.13089      2.17357      4.13824        -0.049247      0.484286      2.207175
O	      6.18077      4.25151      4.01248         0.012504      0.051804     -1.354516
O	      6.23537      2.08212      6.04964        -1.538501     -0.018856      0.875738
O	      8.29552      4.24905      6.20260         0.888394      0.138148      0.187652
O	      1.93619      4.13968      4.15711        -1.551462     -0.914129     -0.099177
O	      4.20740      6.39108      4.19280         0.230136      0.629865     -1.322071
O	      4.07302      4.28961      6.19789         0.011003     -2.616913      0.018940
O	      6.09275      6.48300      6.15830         2.400076      0.216267      0.299829
O	      6.09433      4.57346      8.36377        -0.216300     -0.422791      1.012836
O	      8.04777      6.51262      8.22707         0.966592      0.414268     -1.988240
O	      2.00146      6.77035      6.24074        -0.492668      0.935646      1.573908
O	      4.02109      8.99210      6.09308        -0.790600      0.337186     -1.017425
O	      4.15889      6.59112      8.22577        -0.380715     -0.248560      0.048544
O	      6.11800      8.57924      8.33083         0.037418     -0.216097      0.975347
O	      6.14654      6.79019     10.29596         0.025504      0.089201     -0.279037
O	      8.12582      8.77710     10.46582         0.666469     -0.102264      0.765907
