# total energy = -197.84185694 eV
 
CRYSTAL
PRIMVEC
0.032327 6.473303 6.274871 
6.464370 -0.000234 6.307562 
4.312947 4.341056 -0.003516 
PRIMCOORD
27 1
Sc	      6.44493      2.28696      4.36476        -0.662521      1.085795      0.401114
Sc	      4.34747      8.61481      4.23727         0.691721      0.546197     -0.164141
Sc	      4.31755      4.23412      8.25672         0.531826     -0.855196     -1.193953
Mn	      8.61033      4.35665      4.30778        -0.631011      0.408460      1.480748
Mn	      2.21152      6.35695      4.20546         0.331522     -1.064951     -0.198915
V	      4.29673      2.39219      2.05774        -1.181616      5.012728     -1.421746
V	      6.50241      6.49107      4.21067         0.380592      0.587291     -1.517791
V	      4.24719      6.46034      6.32027        -2.700084     -2.542288     -0.583616
V	      6.49692      6.46385      8.26325         1.949568     -1.690704     -1.195497
O	      2.36433      2.14850      2.20437         1.868431      0.053143      2.454392
O	      4.36581      4.14010      2.05443        -0.129722     -4.503179     -0.001373
O	      4.32389      2.21289      4.08853        -0.798415     -1.477523     -0.877666
O	      6.60447      4.41019      4.20061         1.568141      0.803019      0.257654
O	      6.46853      2.15939      6.29310        -0.063536     -0.094623      0.591267
O	      8.65228      4.34147      6.16463         0.024986      0.056704     -1.460121
O	      2.08921      4.19542      4.18866        -0.798925     -0.779615      0.244987
O	      4.38507      6.51521      4.20624         0.513423      0.662056      2.416404
O	      4.29825      4.46659      6.28669         0.083371      3.887525      0.461417
O	      6.35170      6.48395      6.27626        -1.293212      0.067864      0.248330
O	      6.39604      4.36980      8.43802        -0.823062      3.193779      0.698685
O	      8.49853      6.50342      8.35846        -2.356696      0.629191      1.594596
O	      2.32040      6.47351      6.28267         3.524690      0.176573     -1.415161
O	      4.33122      8.52541      6.37222         0.056847     -1.914134      1.161818
O	      4.43910      6.52686      8.45998         0.729108     -0.238675     -1.511282
O	      6.42588      8.57115      8.40089        -0.613659     -2.199159      0.691218
O	      6.42608      6.47430     10.41185        -0.034333      0.123549     -0.848632
O	      8.62284      8.62755     10.41371        -0.167433      0.066174     -0.312738
