# total energy = -155.31122756 eV
 
CRYSTAL
PRIMVEC
-0.005165 6.173161 6.233762 
6.201396 -0.004278 6.232902 
4.138913 4.119307 -0.007381 
PRIMCOORD
27 1
V	      2.20191      4.04802      2.15352         1.306683     -0.494697      0.551713
V	      6.13729      1.99582      4.28336        -0.608247     -0.659356      2.174375
Co	      2.01571      0.07777      2.04861        -1.305001      1.504317     -0.094253
Co	      8.28934      4.10742      4.21795         0.507942      0.143268      0.446289
Co	      6.19520      4.14218      6.19662         0.646231     -0.347380      0.179779
Co	      2.07218      4.10947      6.20354        -1.435159      0.276659     -1.029800
Co	      4.11475      6.20973      6.16756        -0.144360      0.586923     -1.917113
Co	      6.23198      6.19248      8.29922         0.917212     -0.405157      0.473343
Ni	      8.29737      8.19134      8.32563         0.543907     -0.790539      0.420466
O	      2.02783      2.21829      2.05794         0.175137     -0.107980      0.027315
O	      3.97674      4.18960      2.03126        -0.471766     -0.324323      0.113797
O	      4.31916      2.05453      4.11872         0.531278     -1.579772      0.055646
O	      6.18820      3.98635      4.07433         1.471729     -0.289505      0.464390
O	      6.19754      2.02970      6.05409        -0.095868      0.860574     -1.453115
O	      8.21248      4.10341      6.30940        -1.833819      0.250604     -0.070213
O	      2.07232      4.10700      3.93021         0.123016      0.073077     -0.413996
O	      4.14193      6.18309      4.32184        -0.084380      0.221033      2.949028
O	      4.06059      4.21074      6.26187         0.387836      1.276512      0.805576
O	      6.24863      6.27835      6.36803        -1.729631     -0.251208      0.455434
O	      6.25934      4.24860      8.25561        -0.127117      1.094967     -1.531066
O	      8.16706      6.06892      8.30012        -1.641827      0.053134     -0.050370
O	      2.00827      6.02639      6.30735         2.082831     -0.781355      0.507526
O	      4.27919      8.13826      6.19530         1.425123     -1.619758     -0.089283
O	      4.22229      6.14941      8.21726         0.039672     -0.527394     -0.483225
O	      6.25658      8.14232      8.41962         0.807013     -0.020655     -0.526837
O	      6.20989      6.29708     10.25936        -1.505996      0.266829     -0.910501
O	      8.09448      8.25161     10.35903         0.017561      1.591184     -1.054903
