# total energy = -160.72980714 eV
 
CRYSTAL
PRIMVEC
0.022249 6.092589 6.343487 
6.349748 -0.000524 6.366495 
4.232309 4.076100 0.000586 
PRIMCOORD
27 1
Cr	      6.40333      4.07729      2.22879         0.884764     -0.529463      2.118999
Cr	      4.26131      6.05967      6.34279         0.605973     -0.853558      0.554641
Fe	      4.22430      4.05901      0.02476        -0.125353     -0.282411     -0.471486
Fe	      2.09353      3.94791      2.12423         0.557011     -0.624206     -0.286965
Fe	      4.23430      2.12552      6.22444        -0.308687      0.029808      0.662488
Fe	     10.54348      8.13080     10.60139        -0.188005      0.358910      0.301804
Fe	      8.47125      6.14373     10.58595        -0.270440      0.235980      0.366916
Fe	      6.28026      6.26154      8.43539        -0.718541      0.552722      0.187796
Cu	      6.35603      2.03000      8.46523         0.510646      0.079838     -0.522689
O	      6.38539      4.07756      4.00895         0.072613     -0.086770     -2.149541
O	      2.23264      1.95938      2.08934        -1.111590     -0.547204     -0.012545
O	      4.31860      4.13463      2.05910         0.224590      1.100746     -0.593979
O	      4.23144      2.00674      4.37124         0.082848     -0.014685     -0.508713
O	      6.27968      1.98169      6.44194        -0.878177     -0.426360      1.209355
O	      8.56683      4.10733      6.50156         0.710538      1.108020      0.590466
O	      2.06792      4.10230      4.09975        -1.069845      1.026264     -0.499850
O	      4.15752      6.10731      4.27264        -0.899798      0.778674     -0.173698
O	      4.26501      4.06964      6.34506        -0.215606      0.782162     -0.095326
O	      6.31305      6.08569      6.47014        -0.590420      0.186750      0.915032
O	      6.42138      4.01576      8.54608         0.369171     -0.483611      0.862091
O	      8.28575      6.04581      8.50901         0.488793     -0.622314      0.014565
O	      2.16266      6.09001      6.36534         0.518535     -0.071235      0.141184
O	      4.29165      8.14386      6.21518        -0.105205     -0.850120     -1.037773
O	      4.24809      6.09885      8.35635        -0.611988      0.058381     -1.340711
O	      6.33886      8.21253      8.45606         0.057104      0.963514     -0.101938
O	      6.42400      6.09106     10.60766         0.800208     -0.715598     -0.076912
O	      8.56458      8.07800     10.57539         1.210858     -1.154235     -0.053211
