# total energy = -207.20282584 eV
 
CRYSTAL
PRIMVEC
-0.078094 6.422906 6.349553 
6.280130 -0.008193 6.280074 
4.204061 4.252569 -0.022773 
PRIMCOORD
27 1
Ti	      8.42027     10.50761     10.48531         0.798490     -1.605747      0.199470
Ti	      8.28120      4.37254      8.27436        -0.603683      2.871154     -0.744145
Ti	      2.06249      2.14401      4.20388         0.794523      0.627481      0.455776
Ti	      4.21049      4.27211      4.24955        -0.508450     -1.068762     -1.248122
Ti	      6.24684      4.12102      6.29976         1.052723     -2.674241      1.431403
Ti	      2.05549      4.38510      6.37529        -1.039730      1.740927      1.873539
Mn	      4.16618      8.52361      8.38380         1.126575      0.196253     -0.527105
Fe	     10.39585      6.40296      8.33644        -1.284736      0.286297     -1.389186
Fe	      4.11787      6.43722      6.40438        -1.567535      0.738557      0.602782
O	      2.01893      2.26642      2.19336         0.247138      0.271103      1.427124
O	      4.09195      4.24055      2.18783        -0.653040      0.201941      1.781832
O	      4.09861      2.18360      4.24293        -1.232038      0.889665     -1.668563
O	      6.30728      4.34122      4.20037        -1.582810      1.106312      1.379183
O	      6.28930      2.26285      6.24804        -0.327103      2.961936      1.779894
O	      8.33738      4.28308      6.28624        -2.023337     -0.036031      0.617866
O	      2.09176      4.18566      4.19315         2.029396     -1.344209      0.232758
O	      4.22833      6.27661      4.21580         1.194377     -1.650060     -0.174599
O	      4.15005      4.21700      6.31029         0.621479      1.446159     -2.372113
O	      6.22402      6.38700      6.17762        -1.284444     -0.156685     -1.606608
O	      6.29854      4.31724      8.33641         1.568077     -1.803805     -2.055305
O	      8.36685      6.24147      8.43247         1.924203     -2.123332     -0.230052
O	      2.08962      6.28835      6.29931         2.261781     -1.782682      0.120873
O	      4.31771      8.53806      6.25426         0.580083     -1.690233      2.217248
O	      4.07914      6.41823      8.59351         0.374597      1.501538     -0.749479
O	      6.29320      8.49871      8.22640        -2.180974      0.061332     -1.248107
O	      6.06388      6.45620     10.55342        -0.732175     -0.348990     -0.138679
O	      8.32197      8.66892     10.53522         0.446615      1.384123      0.032312
