# total energy = -173.99712563 eV
 
CRYSTAL
PRIMVEC
-0.003988 6.178147 6.277967 
6.402972 -0.007400 6.280717 
4.270595 4.122171 -0.006534 
PRIMCOORD
27 1
Mn	      2.08206      0.08476      2.06378         1.001070      1.190559     -1.249502
Mn	      8.51823      4.15173      4.24136         0.218343      0.904032      0.258729
Mn	      6.36091      2.03209      4.24637        -1.025305     -0.666261      0.529375
Mn	      6.36364      4.20383      6.28917         0.495881      0.506830      1.103099
Mn	      0.05797      4.07018      4.18855         0.582916     -0.382985     -0.340031
Mn	      6.42415      8.12364      6.26623        -0.363275     -0.599279      0.033263
Mn	      8.53089      8.21017      8.36086         0.384940      0.347490     -0.347707
Cr	      2.14827      6.16205      4.20497         0.272864     -0.049060     -0.432971
Ni	      4.26246      4.14798      4.10483        -0.249477     -0.185971     -0.600101
O	      2.16579      1.92248      2.00892        -0.428265     -1.358580     -0.027335
O	      4.46254      4.11927      2.06543         0.367167      0.230860      0.833308
O	      4.43799      1.95719      4.12558         1.175632      0.136292      0.171434
O	      6.33473      4.21365      4.04178        -0.054334     -1.395652      0.209831
O	      6.33928      2.25796      6.16627         0.266862      0.957674     -1.058583
O	      8.35160      4.16874      6.16604        -1.104141     -0.060148     -0.974393
O	      2.22524      4.17400      4.09819        -0.254068      0.872896      1.827455
O	      4.12618      6.26598      4.17438        -1.396980      0.008054      0.141244
O	      4.26652      4.11702      6.20984        -0.154697     -0.052747      1.041312
O	      6.40239      6.16564      6.29499         0.017830      0.261248     -0.054734
O	      6.22025      4.13325      8.47027        -1.367945     -0.096532      0.179762
O	      8.50174      6.29879      8.51531         0.063664      0.751780      1.466321
O	      2.17037      5.99347      6.34646        -0.077294     -1.278315     -0.179462
O	      4.49008      8.18467      6.14011         1.093504     -0.196876     -0.895275
O	      4.12084      6.07580      8.55115        -0.626552     -0.889730      0.520425
O	      6.52303      8.30733      8.48405         0.619343      0.554700     -0.723977
O	      6.48220      6.05096     10.52780         0.383973      0.715592      0.016339
O	      8.38836      8.25058     10.60227         0.158345     -0.225871     -1.447825
