# total energy = -134.13476355 eV
 
CRYSTAL
PRIMVEC
0.048772 6.105052 6.194295 
6.287500 0.054697 6.188390 
4.221433 4.095937 0.006692 
PRIMCOORD
27 1
Cr	      4.22049      4.07220      4.16026         0.669157     -0.516966      0.345719
Cr	      4.32600      4.09263      8.23504         1.617006      0.204372     -1.162164
Cu	     10.47143      4.15662      6.20047        -0.252678     -0.126799      0.450744
Cu	      2.13251      0.08423      2.08821         0.541777      0.513390      0.158317
Cu	      6.29607      2.09894      4.16787        -0.419681      0.165319      0.230013
Cu	      2.14566      6.11445      4.12793         0.614374      0.244408     -0.322462
Ni	      8.37710      4.11835      8.18327        -0.446610      0.001378     -0.784185
Ni	      4.27656      8.09326      4.15290        -0.124346     -0.343981     -0.151759
Ni	      6.32107      8.14745      6.19844        -0.050814     -0.878936      0.495565
O	      2.04727      5.98495      6.14096        -0.855658     -0.471046      0.178056
O	      4.42158      8.20242      6.17014         0.379807      1.143258     -0.575666
O	      4.14523      6.00028      8.27999        -0.769351     -1.218818     -0.012108
O	      6.42297      6.18822     10.39162         0.986529      0.503158      0.278405
O	      2.11435      1.97236      2.06345        -0.127560     -0.088433      0.033289
O	      4.28358      4.12910      2.15764         0.238713      0.101398      0.239121
O	      4.21101      2.24500      4.10913         0.571670      1.109744      0.138744
O	      6.17176      4.08104      4.22522        -0.546092     -0.970023     -0.817057
O	      6.30812      2.01504      6.05256        -0.240861     -1.054165     -0.581552
O	      8.51176      4.12267      6.24664         1.079688      0.034230      0.385198
O	      2.16341      4.12855      4.03506        -0.114677      0.798827      0.167318
O	      4.14077      6.01651      4.15202        -1.119169     -0.080198      0.040010
O	      4.04904      4.09187      6.16124        -0.763779     -0.091618     -0.015147
O	      6.31117      6.30067      6.20202         0.008886      0.538053      0.046027
O	      6.20587      4.13239      8.24757        -0.820994      0.026373      0.828747
O	      8.37171      6.27700      8.29816        -0.197704      0.553153      0.745761
O	      6.49671      8.32733      8.38305         0.519597      0.797654      0.190045
O	      8.55216      8.13610     10.22070        -0.377229     -0.893732     -0.528978
