# total energy = -147.20309594 eV
 
CRYSTAL
PRIMVEC
-0.026438 6.279760 6.288481 
6.251277 -0.009339 6.271328 
4.150671 4.158305 0.010631 
PRIMCOORD
27 1
Fe	      4.25308     10.29093      6.30549         1.470914     -1.068215     -0.016331
Fe	      4.18779      6.24355     10.39774        -0.044562     -0.020961     -0.636163
Fe	      4.15277      6.20762      2.16832         0.234656     -0.163739      0.964850
Fe	      2.03928      2.19434      4.18717        -0.580378      0.399631      0.222255
Fe	      6.21395      4.20096      6.28999        -0.655559      0.375706     -0.098537
Fe	      8.18261      8.40250      8.37389         0.597433      0.385299     -0.317055
Co	      2.06396      4.16675      2.10927        -0.047947     -0.093834      1.593751
Cu	      6.20508      8.35428     10.44539         0.088296      0.155858     -0.759263
Cu	      8.28312      6.26386      6.29540        -0.413440      0.608673     -0.054539
O	      1.93850      6.27073      6.30889        -2.083660     -0.518225      0.024308
O	      6.27089      8.32697      8.46645        -0.011714      0.217373      1.010599
O	      2.02453      2.22128      2.17229        -0.685376      0.854847      0.979069
O	      3.99463      4.22612      2.03828        -0.808059      0.518013     -1.143220
O	      4.14450      2.03089      4.27918        -0.058516     -0.762825      0.911210
O	      6.30077      4.15894      4.27112         1.007972     -0.128525      0.695869
O	      6.23228      2.07800      6.27838        -0.820796     -0.383441      0.198187
O	      8.31666      4.12847      6.36657         0.316190      0.809911      0.104036
O	      2.08341      4.12771      4.02691         0.034963     -0.742179     -1.724965
O	      4.21285      6.24447      4.11731         1.222574     -0.041201     -1.185623
O	      4.23636      4.18392      6.38198         0.437572     -1.221205      0.775924
O	      6.24488      6.18920      6.19637         1.081931     -0.311475     -1.017245
O	      6.30721      4.10372      8.29711         0.369271     -0.831537     -0.680767
O	      8.35924      6.17220      8.29034         0.575862      0.038583     -0.749494
O	      4.14247      8.45959      6.28246         0.451452      1.890733     -0.096193
O	      4.15165      6.21482      8.44969        -0.220206     -0.991806      0.461842
O	      6.14455      6.37451     10.55977        -0.473159      0.525921      1.221615
O	      8.24372      8.41100     10.38887        -0.985716      0.498621     -0.684118
