# total energy = -160.20799037 eV
 
CRYSTAL
PRIMVEC
-0.014104 6.274823 6.152234 
6.311180 -0.023103 6.161572 
4.188698 4.170472 0.003395 
PRIMCOORD
27 1
V	      6.32914      0.07931      6.08562         0.840088      1.743938     -2.141854
V	      4.11237      4.21976      4.17691        -3.125323      2.221604      1.047880
V	      8.38447      8.26955      8.23776         0.652086     -2.830669      1.992655
Fe	      4.14193      8.35438      8.14386        -0.101814      0.304935     -0.970709
Fe	      6.25766      6.24809      4.17935        -0.879892      1.416309      0.181393
Fe	      6.35398      6.22228      8.17137         0.625093     -0.009601      0.064923
Ni	      2.08512      6.26676      8.14420         0.000190      0.106234     -0.325906
Ni	      8.41310      4.16289      4.13746         0.341075     -0.422977      0.319087
Ni	      6.37485      4.07869      6.18544        -0.064342     -0.729836      0.565599
O	      2.17983      2.04018      2.16397         0.836251     -0.906595      0.980095
O	      4.22891      4.11789      2.10659         0.736375     -0.911127      0.053629
O	      4.16164      2.14857      4.05655        -0.916097      0.089959     -0.880801
O	      6.18348      4.17842      4.12492         0.318892      0.569713      0.185895
O	      6.30148      1.91579      6.17723         0.194082     -2.155674      0.036429
O	      8.44703      4.13241      6.12020         0.628221     -0.011488     -0.353761
O	      2.30064      4.11015      4.12381         2.751615     -0.475884      0.200200
O	      4.27279      6.14258      4.12465         0.972056     -2.658730     -0.002607
O	      4.24136      4.17330      6.19312         0.780920     -0.098169     -1.126194
O	      6.30129      6.19545      6.16666         0.234635     -1.133492     -0.283911
O	      6.20280      4.21622      8.19714        -1.847292      0.854921     -1.039140
O	      8.31817      6.36222      8.22141        -0.654541      2.779493     -0.187229
O	      1.95242      6.29606      6.14149        -2.047569      0.158293      0.578738
O	      4.16778      8.54496      6.21855        -0.194212      1.589898      1.266644
O	      4.20840      6.27209      8.21402         0.125623     -0.176074      0.542885
O	      6.32835      8.29572      8.18619         0.437078      0.060387     -0.205833
O	      6.26627      6.24390     10.27315        -0.662832     -0.038475      1.765369
O	      8.38193      8.39238     10.03044         0.019637      0.663107     -2.263476
