# total energy = -145.63048652 eV
 
CRYSTAL
PRIMVEC
0.035541 6.070907 6.193271 
6.237344 0.048345 6.181218 
4.201017 4.081018 -0.010077 
PRIMCOORD
27 1
Mn	      4.16379      2.08896      2.01676         0.151938      0.831240     -0.798365
Mn	      4.21240      6.07077      6.17859         0.321518      0.320325     -0.482869
Co	      8.39866     10.16939     10.31435         1.033094     -1.481254      0.481720
Co	      8.32246      4.11832      8.25615         1.128071      1.042642      1.140928
Co	      6.27488      4.06638      6.23275        -0.735419     -0.756870      0.770987
Co	      6.31804      6.10606      8.31375         2.117052     -0.474472      0.365729
Cu	      2.07826      6.10713      8.17946        -0.775356      0.113041     -1.546176
Cu	      6.29168      2.08154      4.17474        -0.122000     -0.650663      0.663786
Cu	      2.06043      2.07820      4.10507        -0.237501      0.943748      0.270564
O	      2.31925      6.03231      6.24557         0.303289      0.254825      1.080171
O	      6.14258      6.17029     10.26948        -1.111198      0.690504     -0.995558
O	      8.31874      8.30526     10.27956        -0.512250      1.971325      0.104694
O	      2.24707      2.06578      1.92492         0.472486     -0.037278      0.758339
O	      4.03651      3.97444      1.99299        -0.985961     -0.658977      0.196595
O	      4.12123      1.97616      3.99385        -0.401489     -0.891666     -0.286350
O	      6.40081      4.14569      3.97110         0.522583      0.251133      0.774716
O	      6.21368      2.20216      6.10883         0.380958      1.623115     -1.223175
O	      8.16202      4.14984      6.09388        -1.318911     -0.170559     -0.343377
O	      2.11287      3.99184      3.97269        -0.205415     -0.993423     -2.049095
O	      4.29074      6.11040      4.32048         1.164540     -0.321584      0.838802
O	      4.34211      4.17570      6.23067         1.374616      0.452845     -0.347920
O	      6.20720      6.02147      6.38561        -0.654390     -0.999336     -0.176253
O	      6.40074      4.18462      8.29068         0.852746      0.857921     -1.617723
O	      8.24058      6.02042      8.29799        -2.024787     -1.338406      0.033662
O	      4.29047      8.01559      6.31037        -0.503632     -0.875189      0.676232
O	      4.36877      6.19088      8.27040         0.041375      0.180634      0.698672
O	      6.15061      8.11806      8.35454        -0.275957      0.116378      1.011266
