# total energy = -212.15470040 eV
 
CRYSTAL
PRIMVEC
-0.027358 6.365972 6.298517 
6.317560 -0.014499 6.285538 
4.206788 4.230423 -0.004747 
PRIMCOORD
27 1
Ti	      2.09786      2.16114      0.06681        -0.271073      1.645262     -0.041498
Ti	      4.22148      4.20359      3.99980         0.865956     -1.533075     -4.295701
Ti	      8.41769      6.36489     10.41337        -2.759841      2.818598     -2.716694
Ti	      6.20406      8.50664      6.36587        -2.193763      2.362024      3.879880
Ti	      2.08361      2.13423      4.07561         1.406074     -0.482594     -5.823961
Ti	      6.22262      6.26944      8.47349        -0.242620      0.458263      4.426774
V	      6.32143      4.21144      6.28809         1.884610     -3.080513      1.791071
V	      4.14145      6.39870      6.31829        -1.363475      0.909292      3.141356
Fe	      8.52827      6.26254      6.35736         2.502393     -1.683008      0.511008
O	      2.11030      2.11979      2.10533         0.010970     -0.031056      1.767776
O	      4.19211      4.22883      2.20823        -0.050631      0.018235      2.218330
O	      4.11564      2.19352      4.26344        -2.175410      1.222716      1.753720
O	      6.24229      4.29421      4.15939        -1.263635      2.222229      2.975028
O	      6.41333      2.09200      6.31543        -0.486448      3.040036     -0.038123
O	      8.44728      4.12534      6.26936        -2.848051      0.173349      0.057085
O	      2.12324      4.24616      4.22318         1.139055     -0.549142      1.474754
O	      4.19399      6.32709      4.16252         0.439249     -1.113751      2.379118
O	      4.11288      4.25352      6.20656         0.857558      0.176287     -0.174617
O	      6.28045      6.38802      6.28160        -0.388634     -0.524944     -0.628054
O	      6.30307      4.35215      8.39499        -0.226246      1.154066     -4.142982
O	      8.35486      6.36588      8.43992        -1.065771     -0.178156     -0.237948
O	      2.03466      6.34781      6.27454         2.525362     -0.750553     -1.100793
O	      4.20339      8.50852      6.28843         0.706514     -2.432820     -0.049735
O	      4.29859      6.35368      8.41782         0.795248      0.005451     -3.831026
O	      6.31046      8.38158      8.26985        -0.229162     -1.398707     -3.546444
O	      6.38959      6.35525     10.37723         2.358922     -0.123202     -1.650190
O	      8.42673      8.31969     10.63040         0.072851     -2.324289      1.901867
