# total energy = -140.21356312 eV
 
CRYSTAL
PRIMVEC
0.031172 6.109655 6.263910 
6.366794 0.008948 6.287699 
4.255313 4.099919 -0.005332 
PRIMCOORD
27 1
Sc	      4.32466      8.14083      8.31495        -0.017025     -0.451777     -0.919753
Ti	      6.27109      6.06517      4.21655        -0.854867     -0.199399     -0.436615
Cu	      8.51886      4.07217      4.24262        -0.221469      0.430132      0.159135
Cu	      6.44003      8.11864     10.52518        -0.010852     -0.302480      0.118545
Cu	      4.23549      4.10808      4.17034        -0.227517      0.600000     -0.014546
Cu	      6.37515      4.12310     10.43726         0.381894     -0.168988     -0.081527
Cu	      2.16798      4.14679      6.25950        -0.015761      0.072361      0.029065
Cu	      4.26724      4.06962      8.33456         0.142979     -0.126561     -0.622576
Cu	      2.09765      2.00928      0.03436        -0.136209     -0.402520      1.092179
O	      2.13744      6.18791      6.25991        -0.096710     -0.048154      0.205961
O	      4.23923      8.17491      6.23574         0.150804      0.137926     -0.713059
O	      6.52464      8.17514      8.30582         0.493836     -0.035454     -0.023554
O	      6.27197      6.13258     10.42578        -0.494795      0.223278      0.047146
O	      8.57739      8.20916     10.53222        -0.127663      0.359993      0.151199
O	      2.20905      2.07800      2.24250         0.941163      0.084034     -0.149168
O	      4.27277      4.06708      2.27854        -0.109471     -0.065644      0.919422
O	      4.18985      1.97074      4.18943         0.309909      0.095944     -0.463790
O	      6.42919      4.12580      4.23864         0.043992     -0.326249      0.080020
O	      6.53068      2.02659      6.18706         0.547276     -0.078180     -0.611084
O	      8.49358      3.93196      6.25103         0.003999     -0.665843     -0.948116
O	      2.09171      4.05169      4.25546         0.069758     -0.705633      0.742321
O	      4.37007      6.18174      4.15659         0.850290     -0.032247      0.145088
O	      4.17494      4.12202      6.06937        -0.890738      0.049808     -0.294970
O	      6.38533      6.22114      6.14217         0.069377      1.141000     -0.301417
O	      6.17305      4.08035      8.45325        -0.968131     -0.008537      1.015824
O	      8.52725      6.31054      8.33246         0.029720      1.098539     -0.162853
O	      4.26414      5.99190      8.45276         0.136211     -0.675349      1.037122
