# total energy = -102.27929069 eV
 
CRYSTAL
PRIMVEC
0.000002 2.128594 2.127957 
3.954569 -4.225503 4.224191 
3.954449 4.225455 -4.224291 
PRIMCOORD
16 1
Li	      0.04322      2.12710      2.12341         0.022644      0.002202      0.000173
Li	      3.95274      2.11569     -2.11478        -0.000941     -0.004816     -0.002334
Li	      3.90727      2.13010      2.12311        -0.022116     -0.001939      0.001424
Li	      3.95231      0.01540      4.23540         0.000218      0.001669      0.004493
Ti	      5.92965      2.16987     -0.04081         0.005810      0.085872     -0.085821
Ti	      5.92938     -0.04001      2.16250         0.003436     -0.084337      0.085708
Ni	      1.97513      2.05367      0.07068        -0.001346      0.064766     -0.065147
Ni	      1.97550      0.07474      2.04963        -0.002267     -0.062812      0.063446
O	      4.04094      2.12651     -0.00070         0.278017      0.009562     -0.009130
O	      4.04097      0.00281      2.12145         0.279399     -0.008599      0.009517
O	      5.92977      2.12886      2.12420        -0.001460     -0.000469     -0.000194
O	      3.86408     -2.09897      4.22339        -0.280746      0.007331     -0.009035
O	      5.92971      0.09913      4.15352        -0.000155      0.158024     -0.156915
O	      3.86398      4.22849     -2.10241        -0.279894     -0.010351      0.009103
O	      1.97525      2.12854      2.12414         0.000036      0.001281      0.000132
O	      5.92974      4.15906      0.09564        -0.000635     -0.157385      0.154580
