# total energy = -155.60316707 eV
 
CRYSTAL
PRIMVEC
0.013361 6.126535 6.246285 
6.205678 0.010968 6.248633 
4.175243 4.123840 -0.030416 
PRIMCOORD
27 1
Mn	      2.10359      6.14006      8.28402         0.358106      1.249678     -0.431702
Mn	      4.17946      6.18755      2.08430         0.564833      0.554446      0.215415
Mn	      4.12123      4.13347      4.16167        -0.684020      1.150833     -0.826307
Mn	      8.31556      6.12420      6.23454        -0.414027     -1.215794      0.598890
Co	      6.24693      4.15060      6.23665         1.190698      0.798557      0.639865
Co	      2.01319      4.14102      6.20818        -1.015236     -0.121545     -1.103969
Co	      8.33329      8.21197      8.33718         0.678900      0.358670      2.050885
Cu	      4.12639      8.15591      8.23882        -0.810323     -0.425424     -0.565287
Cu	      6.30335      8.10276     10.41083         0.346208     -0.563009      0.189864
O	      4.24435      8.16935      6.32699         1.118634      0.078630      0.756141
O	      6.23335      6.20235     10.38812         0.181304      1.260201      0.038498
O	      1.94059      1.95538      2.05798         0.091816     -1.170712      0.317405
O	      4.27383      4.19963      1.99162         0.467913     -0.534802      1.759913
O	      4.20347      2.14187      4.26090         1.319344      0.506671     -0.124593
O	      6.11646      4.05010      4.01841        -0.551381     -1.344441      0.376900
O	      6.11114      2.13665      6.40723        -0.496317      0.707882     -0.360100
O	      8.19232      4.26209      6.25308        -1.110325      0.741216     -0.071830
O	      2.19635      4.10438      4.26548         1.114359      0.318121      1.436745
O	      4.16583      6.06230      3.99618        -0.172931     -1.431045     -0.649633
O	      4.25089      4.00504      6.37385         0.052793     -0.195037     -0.957819
O	      6.40591      6.18340      6.24826         0.698487      0.194669     -0.144869
O	      6.10446      3.97812      8.38654        -0.888855     -0.342532     -0.867443
O	      8.42221      6.24212      8.19774         0.328350      1.001829     -0.500247
O	      2.14332      6.06497      6.34830        -0.110623     -1.354815      0.743528
O	      4.01985      6.06247      8.34981        -0.919410     -0.373839     -0.172445
O	      6.36003      8.31024      8.13116         0.000483      0.356995     -0.047031
O	      8.23837      8.19298     10.24218        -1.338779     -0.205402     -2.300776
