# total energy = -158.52451440 eV
 
CRYSTAL
PRIMVEC
-0.026434 6.535302 6.107715 
6.176040 -0.054562 6.135982 
4.106672 4.364337 -0.025874 
PRIMCOORD
27 1
Mn	      2.10729      2.24679      0.03383         0.201671      0.759418      0.577479
Mn	      4.16141      0.01794      4.08367         0.190215     -0.212400     -0.514273
Mn	      4.07903      4.31243      4.10157        -0.323373      0.082151      0.658163
Mn	      6.09400      8.63581      6.12570         0.027142     -1.268007      0.737258
Fe	      2.03567      6.50645      8.11101         0.469798     -0.016857      0.373401
Fe	      6.17416      8.59367     10.12840        -0.351662      0.713649     -0.530731
Fe	      6.04254      6.55268      4.04727         0.117847      0.178615     -0.296942
Cu	      4.09525      4.36423      0.02430        -0.478927     -0.053796      0.126133
Cu	      8.24898      6.48301     10.08749         0.338741     -0.059753     -1.001829
O	      6.17787      4.30204      8.11560        -0.038407     -0.017069     -0.026472
O	      8.23829      6.50240      8.22497        -0.012651      0.055673      1.015565
O	      2.06025      2.00380      2.00277        -0.011472     -1.304195     -0.141747
O	      4.19203      4.27006      2.22439         1.115228      0.143418     -0.223395
O	      4.14963      2.16808      4.11356        -0.182931      0.038231      0.115209
O	      6.16322      4.38873      4.11969        -0.266330     -0.019070     -0.776495
O	      6.35578      2.02040      6.03940         0.589134     -1.171013     -0.147243
O	      8.32659      4.37315      5.99569         1.173939     -1.148392     -0.347511
O	      2.03730      4.16146      4.17947         1.171098      0.401393      0.365104
O	      4.11630      6.33802      4.09083        -0.745529     -1.322734      0.113757
O	      3.90560      4.32749      6.03475        -0.862812     -0.059287     -0.983350
O	      6.09609      6.73029      6.05362        -0.086703      0.968090     -0.406770
O	      1.96459      6.33211      6.06353        -0.991591      0.440175     -0.319689
O	      4.07566      8.81984      6.07206        -0.008751      1.441725     -0.045985
O	      3.97957      6.52981      8.29736        -1.053943     -0.068904      0.734950
O	      6.14350      8.83239      8.07676         0.116278      1.334828     -0.017219
O	      6.15935      6.68127     10.04166         0.253351     -0.232586      0.402725
O	      8.16597      8.86802     10.29826        -0.349360      0.396699      0.559909
