# total energy = -219.18776442 eV
 
CRYSTAL
PRIMVEC
-0.004982 6.281331 6.294416 
6.222893 0.013951 6.275413 
4.160139 4.186572 -0.002133 
PRIMCOORD
27 1
Ti	      6.25052     10.38831      8.32364         1.616176      0.783440     -4.578152
Ti	      4.20536      8.36286      8.30590        -1.362204     -1.259142     -2.839107
Ti	      6.21748      8.33757     10.41477         2.510298     -1.491127      6.259336
Ti	      4.17237      4.29613      4.34396        -1.385409      0.727256      5.944195
Ti	      0.01786      4.18431      4.19240        -2.647451      0.409225      0.409292
Ti	      6.17615      6.27617      4.36649         0.554860     -0.523755      5.289078
Ti	      6.24213      6.34464      8.38509         2.655744     -3.131132     -2.302618
V	      8.30365      4.21682      8.37012        -0.841036      3.549615     -4.023908
Cr	      8.25546      2.12041      6.25586        -1.803082     -0.086805     -1.304787
O	      2.09035      2.04227      2.11031         1.605969      0.329468      0.244190
O	      4.21089      4.16559      2.17570         0.072125     -1.834042      0.302537
O	      4.14670      2.15198      4.11018         0.547388      1.010950     -1.768136
O	      6.23148      4.20141      4.13591        -1.371604      0.166142     -1.281915
O	      6.27102      2.09263      6.14825         1.977680      0.030624     -2.991862
O	      8.30450      4.09083      6.34307         0.049633     -1.824781      3.526836
O	      2.08156      4.19059      4.23010        -0.748474     -1.995832     -1.936103
O	      4.13473      6.31573      4.18395         2.869059      0.452101     -0.163389
O	      4.17502      4.19922      6.16022         0.051629      0.112203     -4.131254
O	      6.20481      6.28434      6.23677        -0.003960      0.049308     -2.142234
O	      6.20378      4.23688      8.45896         2.011211      1.847605      2.121184
O	      8.17949      6.28488      8.35950        -2.310350     -2.848466      0.238352
O	      2.06315      6.35262      6.41017         0.005836      1.614577      3.121974
O	      4.10634      8.37037      6.26949        -1.164979      0.168769      1.162922
O	      4.14139      6.32063      8.39142        -0.226800      2.832062      0.142754
O	      6.30865      8.39114      8.26563        -2.379434      0.098138      2.019707
O	      6.20615      6.27142     10.45159        -0.075126      0.753611     -2.256886
O	      8.29571      8.37843     10.53946        -0.207700      0.059988      0.937995
