# total energy = -212.96686301 eV
 
CRYSTAL
PRIMVEC
-0.003221 6.281484 6.186127 
6.335325 -0.019575 6.201719 
4.218111 4.192975 -0.007539 
PRIMCOORD
27 1
Ti	      4.20301      2.10245      2.20368         0.434208      0.906437     -5.934064
Ti	      4.24111      0.06202      4.11901         2.376633     -6.188937      1.704655
Ti	      6.23802      2.04933      4.08635         6.065156     -2.493596      0.558641
Ti	      6.20925      2.18221      8.24437        -2.124717      0.234944     -1.320431
Ti	      2.23328      2.08780      4.06364        -4.936934      0.810915      1.501209
Ti	      4.25163      6.27773      6.29255        -0.540841     -1.755773      0.325677
Ti	      4.21707      4.08466      4.07253        -0.709326      5.298087      0.939687
Cr	      8.44518      8.37597     12.34647        -0.919141      0.943251     -0.464577
Fe	      6.29800      8.43630      6.22605         0.541183      0.767072      0.122918
O	      2.10873      2.07144      2.02451         1.474875      0.035507      1.603696
O	      4.23583      4.19020      2.08767        -0.107559     -2.254493      2.803669
O	      4.23984      2.08475      4.36498        -0.270424      0.125110     -2.030244
O	      6.32047      4.18253      4.10589        -0.031657      0.339374      0.022053
O	      6.41239      2.05737      6.23007         1.330397      0.190032     -0.509890
O	      8.42574      4.10179      6.07756         0.206579     -1.744169     -1.592835
O	      2.16908      4.12868      4.13716         2.373217     -2.460720      0.929794
O	      4.32331      6.20408      4.06389         1.692992     -1.535036      0.137290
O	      4.23093      4.32338      6.12018        -1.580817      0.823451     -1.662725
O	      6.21635      6.27994      6.10920        -0.686936      1.738275     -1.996830
O	      6.34227      4.01567      8.27514        -0.362911     -0.750242     -0.092732
O	      8.58899      6.26020      8.24943         1.458963      0.395934      0.028494
O	      2.27518      6.37850      6.14618         1.261696     -0.413816      0.055024
O	      4.13754      8.32494      6.20240         0.824602     -0.893848      2.011614
O	      4.23169      6.27630      8.23565        -0.179737      2.718361      0.803157
O	      6.27350      8.37470      8.26818        -2.493199      0.148296      1.228797
O	      6.25824      6.33276     10.29753        -3.240872      3.122552      0.155631
O	      8.31428      8.45250     10.35954        -1.855429      1.893033      0.672322
