# total energy = -152.91637003 eV
 
CRYSTAL
PRIMVEC
0.050417 6.238455 6.294371 
6.314375 0.022656 6.322332 
4.213981 4.182276 0.010507 
PRIMCOORD
27 1
Sc	      4.25007      8.31434      8.33355        -0.368446     -0.786948      0.513754
Sc	      8.54765      8.29093      8.51413         0.540614      0.371382     -0.047951
Cr	      2.15619      6.29558      8.32510        -0.042897      2.111583     -2.369117
Cr	      4.17808      4.29605      4.22248        -0.230638      3.314028     -0.723269
Ni	      6.37793      8.30489     10.54960         0.287196     -0.053944      0.247381
Ni	      8.35954      4.24496      8.40987        -0.238745     -0.194776      0.579898
Ni	      8.44733      6.24529      6.30889         0.016024     -0.319082     -0.048871
Ni	      6.35863      4.20392      6.33978         0.124990      0.286401     -0.114951
Ni	      6.32623      8.31121      6.26353        -0.756790     -0.086366     -0.720243
O	      6.35617      6.45207     10.51159         0.095469      0.418719      0.005393
O	      2.14048      2.00109      2.11709         0.089942     -0.925947      0.123662
O	      4.27753      4.19688      2.23309         0.056751     -0.800446      1.092817
O	      4.33271      2.21594      4.23456         0.768543      0.559597      0.743265
O	      6.18282      4.05885      4.11403        -0.431875     -0.814653     -0.102902
O	      6.13519      2.20322      6.24986        -0.387443      0.438328     -0.712580
O	      8.33769      4.25463      6.37399        -0.550658      1.038262      0.615101
O	      2.31097      4.13055      4.18648         1.178281     -0.163209      0.116741
O	      4.28061      6.08210      4.26142         0.014812     -2.591149      0.071079
O	      4.23552      4.15687      6.22726         0.001223     -1.057602     -0.051557
O	      6.53712      6.24716      6.27664         0.781691     -0.103427     -0.025605
O	      6.34621      4.19543      8.41990         0.504861      0.032532     -0.886825
O	      8.45681      6.25732      8.32297         0.007686     -0.329740     -1.192484
O	      2.06925      6.16877      6.50059        -0.050414     -0.652284      2.253374
O	      4.34176      8.31655      6.31101         0.806450     -0.022496     -0.448401
O	      4.08301      6.24650      8.43162        -1.018371     -0.212764      0.209206
O	      6.37416      8.45060      8.38268         0.111064      0.538063      0.357159
O	      8.34166      8.32376     10.53028        -1.309319      0.005937      0.515924
