# total energy = -139.03780371 eV
 
CRYSTAL
PRIMVEC
0.011489 6.124380 6.228006 
6.221371 0.030113 6.209201 
4.163086 4.085772 0.004743 
PRIMCOORD
27 1
Mn	      2.11378      8.11525      6.23876         0.450797     -0.570134     -0.212322
Mn	      8.33232     10.22198     10.37800        -0.639050     -0.030146     -0.290158
Mn	      2.05413      2.08363      4.13987         0.160949     -0.376758     -0.046516
Cu	      8.27833      8.15748      8.28924         0.277418      0.170530      0.782926
Ni	      6.21467      0.05834      6.20025        -0.235292      0.218209     -0.517897
Ni	      4.20774      8.19025      8.31016        -0.102132      0.007905      0.611101
Ni	     10.36298      6.15419      8.31151         0.087262     -0.447981      0.658424
Ni	      6.16765      4.12878      6.23828        -0.007265      0.173227     -0.333608
Ni	      2.12916      4.10865      6.21244         0.182955     -0.085093     -0.665719
O	      8.35894      6.26404      8.32399         0.467950      0.648554     -0.139122
O	      2.09128      2.06237      2.06507         0.320498     -0.048518     -0.235329
O	      4.13248      4.18544      1.91992         0.231521     -0.179354     -0.666951
O	      4.06273      1.95454      4.08689        -0.623472     -0.532070     -0.968092
O	      6.35233      4.19244      4.18554         0.503836      0.769191      1.023723
O	      6.38052      2.05758      6.26286         0.477864     -0.055446      0.923600
O	      8.28832      4.00611      6.11621        -0.093324     -0.630830     -0.325856
O	      2.10656      3.96436      4.18788        -0.317964     -0.618016      0.960824
O	      4.34334      6.09515      4.07385         0.707479      0.434928     -0.982961
O	      4.15903      4.10716      6.29676         0.083090     -0.107787      0.729627
O	      6.23026      6.13914      6.03972         0.011297      0.083489     -0.743746
O	      6.18208      3.98071      8.24718        -1.469788     -0.378034     -0.733998
O	      2.06383      6.22583      6.15575        -1.093602     -0.159530      0.274100
O	      4.06982      8.22445      6.31482         0.281684      0.976667      0.749886
O	      4.19743      6.03415      8.48489        -0.076492      0.011673      0.486684
O	      6.21699      8.17170      8.22411         0.242408      0.149637     -0.928431
O	      6.06639      6.17354     10.50953        -0.157519     -0.174556      0.683088
O	      8.29994      8.29874     10.48972         0.328895      0.750239     -0.093277
