# total energy = -180.36306641 eV
 
CRYSTAL
PRIMVEC
-0.006657 6.439186 6.220788 
6.292154 0.023387 6.190205 
4.208740 4.286278 0.001810 
PRIMCOORD
27 1
Sc	      6.30622      6.44633      4.16918        -0.200907      0.053585     -0.611902
V	      4.23525      8.62487      8.16101         0.507652      0.791691     -3.523032
V	      8.38883      4.27321      4.18069        -0.089528     -1.552352      2.556595
V	      6.27003      4.35301     10.23103        -0.352867      1.644473     -4.108255
V	      8.34493      6.49410     10.30408        -0.835572     -0.247777     -1.869168
V	      4.22715      4.29464      4.11299         0.109338      0.402878     -0.428877
V	      4.18861      6.36970      6.28464        -0.267664     -0.206739      2.483786
Ni	      6.30666      2.19076      4.19808         0.701375     -0.006569     -0.117227
Ni	      8.44178      6.41837      6.34668         0.142302      0.111863      1.693608
O	      2.34892      2.17878      2.09190         1.886646      0.017309      0.729536
O	      4.21445      4.18708      2.13682        -0.075428     -1.911605      2.446193
O	      4.20285      2.17074      4.10587         0.043575      0.278878     -0.027135
O	      6.28138      4.32631      4.10971        -0.105309      0.114375     -0.016299
O	      6.25342      2.16560      6.15539        -0.843408     -0.067422     -0.573068
O	      8.36335      4.38076      6.09160         0.021809      0.607428     -3.817774
O	      2.09284      4.35880      4.15673        -0.219181      0.224428      0.003578
O	      4.19561      6.46055      4.14800        -0.442258     -0.410773      1.151454
O	      4.19050      4.35580      6.12646         0.065419      0.483798     -2.476214
O	      6.25329      6.43976      6.20928        -1.740241     -0.116564     -0.813279
O	      6.32148      4.25418      8.49541        -0.038067      0.063412      4.096229
O	      8.36408      6.49461      8.36123         0.007800     -0.056495      2.893008
O	      2.21126      6.42647      6.10971         2.397960     -0.047700     -1.985720
O	      4.24448      8.43856      6.18951        -0.049547     -1.199335      1.405668
O	      4.17737      6.56604      8.33953         0.030146      1.380866     -0.026713
O	      6.08250      8.59235      8.38065        -2.016313      0.050623      0.796948
O	      6.23475      6.30246     10.38163         0.427393     -0.963120      0.070280
O	      8.48022      8.57880     10.34956         0.934874      0.560843      0.067781
