# total energy = -133.40436525 eV
 
CRYSTAL
PRIMVEC
0.016520 6.155303 6.149416 
6.186033 0.003468 6.162436 
4.115447 4.103697 0.010766 
PRIMCOORD
27 1
Fe	      6.07069      2.15748      4.12558         0.077072      0.359063      0.268069
Co	      0.01208      2.04245      2.03686         0.229106     -0.434144     -0.752498
Co	      6.23696      6.06609      4.14283         1.660750     -0.884837      0.598262
Co	      2.07571      6.14569      4.10341        -0.038459      0.001947      0.825636
Cu	      4.14962     10.24327      6.18350         0.183568     -0.089693      0.572003
Cu	      8.25688      4.10990      8.17863        -0.075720     -0.052721     -0.581404
Cu	     10.30442      8.23711     10.29529        -0.453911      0.283893      0.112211
Cu	      4.12443      6.14809      6.17732         0.185738      0.260913      0.871714
Cu	      4.10485      4.12200      8.17055        -0.445025     -0.075949     -0.406748
O	      2.09800      6.15090      6.00747        -0.165128     -0.062147     -1.490877
O	      4.13222      8.19176      6.08626        -0.020336      0.094032     -1.198253
O	      4.15944      6.08996      8.11463        -0.106688     -0.502612     -0.497260
O	      6.25738      8.19015      8.33741         0.743903      0.242887      0.434821
O	      6.33917      6.19075     10.35129         0.613907     -0.193368      0.926275
O	      1.93584      2.10493      2.21476        -0.834399      0.497288      0.986481
O	      4.08052      4.24170      1.98214        -0.655983      0.774098     -0.861341
O	      4.16318      2.05803      4.09660        -1.227130      0.102198      0.155514
O	      6.17466      4.08522      4.13659        -0.180894      0.658005     -0.111680
O	      6.21199      2.00622      6.23316         0.039913     -0.781219      0.493615
O	      8.33809      4.08179      6.25227         0.826376     -0.074257      1.030992
O	      2.01719      4.19491      3.99185        -0.855262      0.067876     -0.958629
O	      4.01829      6.18133      4.01291         0.000858      0.745920     -0.070116
O	      4.12204      4.19125      6.25968         0.023018      0.704914      0.686273
O	      6.13589      6.18176      5.96805        -0.716697     -0.174110     -1.691484
O	      6.18112      3.99068      8.28202         0.003295     -0.624687      0.736025
O	      8.34979      6.14492      8.29640         0.778404      0.017209      0.790129
O	      8.23629      8.07740     10.17368         0.409724     -0.860495     -0.867727
