# total energy = -161.77574071 eV
 
CRYSTAL
PRIMVEC
6.032076 0.010837 -0.031801 
1.673409 7.727569 -0.045072 
1.398988 2.542271 7.364890 
PRIMCOORD
27 1
Sc	      4.45422      4.33250      4.92455        -0.839426     -0.621472     -0.191528
Sc	      1.56276      2.54453      7.34167         0.361788      1.074778     -0.285549
Sc	      6.11428      8.43591      2.52469        -0.624740      0.920809     -0.356630
Sc	      6.12113      3.44365      2.39280        -0.062827     -0.387888      0.134998
Co	      7.67601      7.71026      7.19229         1.115954     -0.262347     -1.191889
Co	      2.99918      3.39606      2.40168        -0.512492     -0.205685      0.961845
Ni	      6.09043     10.26950      7.29819        -0.332342      0.224026     -0.395034
Ni	      4.53009      6.02497      2.40592        -0.712039     -0.008804      0.427149
Ni	      5.91937      5.20460      7.31923        -0.318365      0.350832     -0.301619
O	      7.61269      7.79003      3.61112         0.837613     -0.317792      0.768305
O	      6.33531      8.46378      6.31806         1.010490     -0.188345      0.516996
O	      3.07706      8.57357      6.14901        -1.242915     -0.993055      0.678360
O	      4.62910      7.67445      3.62854        -0.095561     -1.232632     -0.484055
O	      3.24357      6.94390      1.14213         1.395859      0.109945     -0.374220
O	      6.18642      6.81196      1.10098        -0.908072      0.048875     -0.502058
O	      7.48657      6.13639      6.29886        -0.186492      1.027716      1.183503
O	      4.58411      5.93736      6.14143         0.470913      0.125259      0.774528
O	      3.03448      4.95264      3.46480         0.811250     -0.644899     -1.130460
O	      5.95889      5.04542      3.63796        -1.378618      0.404302     -0.685080
O	      4.37284      4.16373      1.28927         0.449588      0.036075      0.406789
O	      1.43847      4.34139      1.15886        -0.508965      0.159212     -0.721367
O	      2.97698      3.38829      6.09825         1.137217     -0.453904      1.067679
O	      5.94164      3.49106      6.18491        -0.968009     -0.056402      1.112875
O	      4.37602      2.63311      3.51004        -0.127288      0.463248     -0.790302
O	      1.66331      2.64828      3.45556         1.361231      0.390385     -0.739758
O	      5.86104      1.74491      1.14773        -0.805136     -0.123009      0.082061
O	      3.05766      1.89871      1.22918         0.671383      0.160771      0.034460
