# total energy = -206.46358715 eV
 
CRYSTAL
PRIMVEC
0.029530 6.289305 6.320682 
6.337082 0.002401 6.348058 
4.213629 4.199691 0.013282 
PRIMCOORD
27 1
Ti	      4.21313      2.28752      2.16383         0.492058      4.735392      0.922245
Ti	      6.29362      2.12334      8.42105        -1.144011     -1.490512     -0.649190
Ti	      4.23546      6.24071      6.19004        -1.526764     -1.164152     -2.843610
V	      8.46306      8.40400     12.64712        -2.680812      0.085877     -1.082813
V	      8.45268      4.19756      4.32285        -0.835112      1.057982      2.977552
V	      6.39061      6.20593      8.45330         1.973095     -1.090381      2.361366
Cr	      2.15710      2.11627      4.19663        -0.202075      0.399754      0.099216
Cr	      2.11001      4.25396      6.25269         0.382920      1.166910     -1.799462
Cr	      8.40610      8.36825      8.52712         0.454116     -0.901712     -0.608551
O	      2.11938      2.11884      2.11272         0.338695      0.025804     -1.026302
O	      4.23385      4.16701      2.13820        -0.071521     -1.919109      0.030820
O	      4.19145      2.10308      4.15273        -0.866970     -2.617535     -1.443850
O	      6.45399      4.32277      4.24593         2.985529      0.899846      0.011106
O	      6.37170      2.05538      6.51064         3.362400      0.043896      1.562316
O	      8.45175      4.10013      6.30188         0.189036     -2.392892     -2.874152
O	      2.11418      4.12160      4.30403        -0.023861     -1.389674      1.330850
O	      4.32501      6.27586      4.24432         1.165112      0.073536      0.859780
O	      4.14575      4.34399      6.30572        -0.920166      0.735304      2.381154
O	      6.28545      6.41582      6.27438        -0.741699      0.399837      1.351158
O	      6.27573      4.06312      8.46407        -1.578675      1.705145     -0.011620
O	      8.55031      6.30974      8.47391        -1.470038      1.757919      0.036211
O	      2.25812      6.30173      6.30225         1.530788      1.336292      0.032856
O	      4.28227      8.27953      6.42307        -1.211559     -0.435085      1.201142
O	      4.25472      6.34723      8.42523         1.897989     -1.199736      0.665644
O	      6.28177      8.36954      8.33917         0.559069     -1.963634     -0.422452
O	      6.26779      6.28366     10.53208        -2.220044     -0.028875     -3.834379
O	      8.41987      8.41038     10.70511         0.162501      2.169801      0.772968
