# total energy = -171.24797533 eV
 
CRYSTAL
PRIMVEC
0.002168 6.203614 6.226345 
6.480855 0.012067 6.215684 
4.335971 4.143608 -0.007283 
PRIMCOORD
27 1
Mn	      2.11355      6.20092      8.18505        -0.906825      0.017975     -0.878239
Mn	      4.34403      8.28406      8.20738         0.216661      0.898087     -0.844674
Mn	      6.51922      2.07235      4.23486        -0.073423     -0.053778      1.535136
Mn	      8.67826      4.14611      8.25198         0.223285      0.335877     -0.563022
Mn	      4.36133      6.16323      6.17146        -0.229438      1.067173     -0.964549
V	      6.47716      6.25071      4.20382        -2.114259      2.232609      1.440907
V	      6.49765      6.10635      8.32421         1.538850     -3.149866     -0.177554
Cu	      8.65784      4.12321      4.28794         0.139634     -0.650736      0.797666
Cu	      2.22216      6.26670      4.19072         0.305028      0.231202      0.228029
O	      2.08155      2.13796      2.17172         1.616256     -0.049646      1.139180
O	      4.38307      4.00641      2.02077        -0.307700     -1.209440     -0.049800
O	      4.30760      2.00944      4.02712        -0.265874     -1.079965     -0.502202
O	      6.60075      4.33719      4.08971         1.073842     -0.462832     -0.852260
O	      6.46353      2.07716      6.08798        -0.063981      0.065619     -1.091085
O	      8.62967      4.19487      6.39723         0.072035      0.007952      0.300660
O	      2.24720      3.97711      4.05989         0.076519     -1.303112     -0.895998
O	      4.53828      6.21886      4.25664         1.883190     -0.207404      0.663543
O	      4.34190      4.29785      6.21839        -0.132420      0.089964     -0.026561
O	      6.36421      6.25229      6.21714        -0.565891     -0.194257     -0.428952
O	      6.41793      4.32714      8.30600         1.031734      2.790660     -0.111423
O	      8.51681      6.14666      8.42443        -2.079549     -0.951622      0.634511
O	      2.41478      6.19776      6.12373         1.255339     -0.382925      0.021042
O	      4.35913      8.17085      6.28889        -0.055825     -0.671478      1.111581
O	      4.39237      6.29308      8.12349         0.223683      0.601288      0.103176
O	      6.52228      8.12401      8.43801        -1.399865      0.729525      0.609636
O	      6.32522      6.15803     10.27536        -0.376537      1.120297     -1.199623
O	      8.50465      8.33769     10.37653        -1.084473      0.178833      0.000877
