# total energy = -149.56046869 eV
 
CRYSTAL
PRIMVEC
0.010691 6.123581 6.384995 
6.213890 0.026559 6.368332 
4.155640 4.085126 0.004691 
PRIMCOORD
27 1
Mn	      6.20831      6.16327      8.50817        -0.220878      0.183920     -0.116302
Cr	      2.12358      3.94009      2.10604         1.133831     -3.317902     -0.321855
Cr	      4.16573      4.12636      4.24614         0.367386      0.793613     -0.770969
Cr	      8.32536      8.17705      8.54460         0.199368     -0.377607     -0.373459
Cu	      6.19261      4.10874      2.10941        -0.560681      0.574750     -0.541344
Cu	      8.23371      4.15481      4.26378         0.084706     -0.231349      0.063115
Cu	      4.20783      2.05162      6.37563        -0.128491     -0.494218      0.345342
Cu	      4.17518      8.11100      4.30545        -0.082371     -0.161124      0.207484
Cu	      6.20171      8.20973      6.40809        -0.547024      0.162127      0.037596
O	      6.27852      6.30233      6.54304         0.745171      0.453057      0.350596
O	      2.05443      5.99282      6.54723        -0.046471     -0.608105      0.978195
O	      4.33687      8.20816      6.24811         0.751169      0.091373     -0.489526
O	      6.14727      6.02363     10.46606        -1.159511     -0.534123     -0.275324
O	      8.35510      8.26256     10.50517         0.803494      1.075713     -0.075529
O	      2.10015      2.14272      2.03274        -0.379239      2.167788     -0.075602
O	      4.07445      4.02844      2.28154        -0.548070      0.365363      1.273901
O	      4.11384      2.06123      4.40754         0.182495      0.306047      1.018183
O	      6.21211      4.13231      4.09198        -0.168086      0.003547     -1.022580
O	      6.14392      2.07847      6.38336        -0.710025     -0.063915     -0.064646
O	      8.30221      4.19785      6.59727         0.053586      1.248270     -0.322481
O	      2.14570      4.12755      3.97521         0.145915      0.129479     -0.093538
O	      4.16694      6.14749      4.29124         0.058711     -1.065671      0.029736
O	      4.00548      4.04837      6.38860        -0.538966     -0.652511     -0.143633
O	      6.22586      4.20310      8.49588         0.284597      0.409384      0.793982
O	      8.18575      6.14693      8.47128        -0.348557     -0.306091     -0.894795
O	      4.29365      6.06971      8.38922        -0.322705     -0.461554      0.834933
O	      6.32662      8.04571      8.67258         0.950647      0.309740     -0.351481
