# total energy = -162.36145365 eV
 
CRYSTAL
PRIMVEC
6.018651 0.029873 -0.044547 
1.694034 7.732342 -0.046837 
1.389769 2.549420 7.374068 
PRIMCOORD
27 1
Sc	      5.95323      5.26137      7.28638        -0.213950      0.224938      0.085287
Sc	      4.41383      4.30884      4.87518        -0.878760     -0.595478      0.220982
Sc	      1.57192      2.55179      7.36038         0.518658      0.860675     -0.287918
Sc	      6.16515      8.48237      2.52147        -0.884381      0.980525     -0.470584
Co	      7.75069      7.74679      7.25109         0.869113     -0.496175     -1.571189
Co	      2.93897      3.42300      2.39393        -0.411804      0.082003      0.952222
Ni	      6.12157     10.27616      7.29524        -0.320225      0.067101     -0.440787
Ni	      4.51914      6.02907      2.42195        -0.522208     -0.062834      0.286028
Ni	      6.02483      3.41480      2.38572         0.373374     -0.017266      0.269819
O	      7.60261      7.80331      3.65321         0.903024     -0.580182      1.018914
O	      6.36703      8.46082      6.36777         1.033098     -0.078770      0.535204
O	      3.12660      8.58694      6.17599        -1.214756     -0.974687      0.677946
O	      4.64204      7.67040      3.59634         0.116449     -1.228590     -0.598510
O	      3.30169      6.93682      1.13447         1.314102      0.102326     -0.316574
O	      6.23368      6.85571      1.09878        -0.819390      0.063788     -0.487555
O	      7.53959      6.18108      6.26829         0.275133      1.539812      1.194964
O	      4.53432      5.95152      6.03603        -0.009290      0.085628     -0.123604
O	      2.98335      4.97902      3.48220         0.654161     -0.852962     -1.350353
O	      5.92621      5.02379      3.52861        -1.007698     -0.214227     -1.168389
O	      4.39853      4.22528      1.38499         0.791465      0.157097      0.761331
O	      1.43452      4.33125      1.17606        -0.613400     -0.289105     -0.038450
O	      2.97819      3.36755      6.09657         1.180529     -0.429225      1.081813
O	      5.93984      3.46502      6.13987        -0.955728     -0.190625      1.212526
O	      4.29598      2.62623      3.51558        -0.072173      0.556740     -0.933902
O	      1.58762      2.71100      3.40425         0.120616      0.678712     -1.098671
O	      5.93993      1.74031      1.21138        -0.812624      0.411154      0.382581
O	      3.05347      1.91168      1.22332         0.586665      0.199629      0.206870
