# total energy = -158.76882654 eV
 
CRYSTAL
PRIMVEC
0.016138 6.353928 6.233269 
6.318148 0.023685 6.225577 
4.222006 4.240642 0.005966 
PRIMCOORD
27 1
Sc	      4.25501      4.25665      8.27781         1.135116      0.076388      0.022534
Fe	     10.50923     10.56934     12.40836        -0.866100     -0.720058     -0.170564
Fe	      8.50235      8.53962     12.38758         0.768517      0.318049     -0.109166
Fe	      2.16074      0.08640      2.07681         0.545751      0.600740      0.548149
Fe	      6.25562      2.13717      4.19234        -0.499757      0.254149      0.125395
Fe	      4.22340      6.36975      2.13092         0.002649      0.945428      0.220368
Fe	      4.17437      4.23761      4.21760         0.512612      0.020414     -0.201634
Fe	      6.37624      6.31390      8.27258         0.252699     -1.256286      0.717417
Ni	      6.30560      8.44062      6.19140        -0.387269     -0.324710     -0.615855
O	      2.04560      2.05997      1.98619        -1.082463     -0.686188     -0.811946
O	      4.28171      4.31223      2.07469         0.756078      0.882769     -0.133649
O	      4.27295      2.34233      4.17689         1.036384      0.920952      0.260033
O	      6.18114      4.18807      4.09827        -0.777141     -1.268983     -0.805857
O	      6.38316      2.06831      6.23153         0.682310     -1.087293     -0.071485
O	      8.51592      4.17149      6.21697         1.660567     -1.215126     -0.142271
O	      2.29539      4.21133      4.20487         0.532086      0.180539      0.422895
O	      4.23946      6.15189      4.07669        -0.479382     -1.049260     -0.638957
O	      4.17911      4.28287      6.14751        -0.910854     -0.157734      0.053053
O	      6.32122      6.38759      6.38189         0.057284      0.841013      0.667706
O	      6.32076      4.23956      8.37536        -0.691949     -0.045628     -0.122714
O	      8.45503      6.41495      8.30687        -0.246883      0.412673     -0.249182
O	      2.04119      6.37138      6.30363        -1.117836     -0.072212      0.689696
O	      4.19566      8.55378      6.17139        -0.172620      1.637350      0.028241
O	      4.18769      6.34981      8.35994         0.457009     -0.590518     -0.303828
O	      6.33708      8.47574      8.34820         0.460102     -0.093364      0.072319
O	      6.30216      6.47680     10.36246         0.032692      1.504938      0.055416
O	      8.32637      8.49925     10.40166        -1.659604     -0.028042      0.493883
