# total energy = -122.06490052 eV
 
CRYSTAL
PRIMVEC
-0.005270 6.204706 6.092682 
6.222662 -0.016760 6.104415 
4.131334 4.126996 0.006035 
PRIMCOORD
27 1
Fe	      8.30293     10.22711     10.18736         0.395294     -0.586900      0.298105
Cu	      6.22577      8.23833     10.18165         0.343646     -0.287669      0.165926
Cu	      2.05585      2.11248      4.08625        -0.577648      0.831812      0.279271
Cu	      4.11122      4.16283      4.07078        -0.298578      0.001072      0.009838
Cu	      6.18097      4.12143      6.10870         0.641458      0.056022      0.571701
Cu	      2.06396      6.18291      4.10727         0.104517      0.169721      0.385001
Cu	      6.23724      6.16883      8.09597         0.030997      0.088974     -0.157401
Ni	      4.11943      2.08595      2.01079        -0.234691      0.071680     -1.336728
Ni	      6.25542      2.02791      8.07392        -0.078003     -0.089637     -0.669412
O	      2.06728      6.20682      5.93741         0.056001     -0.136451     -0.575754
O	      4.12131      8.26060      6.28082         0.027071      0.014238      0.585530
O	      4.20776      6.25512      8.26859         0.960153      0.664479      0.201171
O	      6.11683      8.16379      8.22135        -0.521076     -0.883995      0.670641
O	      6.11080      6.19144     10.17050         0.309021      0.798245     -0.543659
O	      8.24355      8.31009     10.15334        -0.875761     -0.470652      0.061316
O	      2.08927      2.06279      2.13398         0.179609      0.114576      0.885744
O	      4.14698      4.11507      2.09579        -0.144657     -0.100750      1.288998
O	      4.11113      2.08468      3.93345         0.120430      0.136334     -0.384231
O	      6.24548      4.13270      4.07765        -0.004548     -0.037644      0.888309
O	      6.17099      2.15469      6.06164        -0.154494      1.213908     -0.315844
O	      8.22233      4.15356      5.92094        -1.098144     -0.154350     -0.358685
O	      2.14017      4.12550      4.11876         0.646718      0.182745      0.050961
O	      4.18903      6.14396      4.00049        -0.053431     -0.781562     -0.465178
O	      4.23184      4.11810      6.00960         0.708913      0.084487     -0.945559
O	      6.22580      6.10810      6.07323        -0.136466     -1.099651     -0.321393
O	      6.22364      4.16043      8.04828        -0.085106      0.215644     -1.127714
O	      8.24135      6.18357      8.32028        -0.261225     -0.014676      0.859047
