# total energy = -163.54674139 eV
 
CRYSTAL
PRIMVEC
0.025433 6.219065 6.191441 
6.211302 0.029833 6.187071 
4.164018 4.166040 -0.003082 
PRIMCOORD
27 1
Cr	      2.07595      2.06142      4.09937        -0.145804     -0.498688     -0.860299
Cr	      8.37619      6.15867      6.23828         0.669946     -2.749136      1.370319
Cr	      2.11845      6.21091      4.12527        -0.622454      0.437297      0.061710
Fe	      2.09088      6.28263      8.14879        -0.045900      0.487659     -0.746904
Fe	     10.30838      8.42025     10.34042        -0.868840      0.804852      0.057741
Co	      6.22195      8.30046     10.30882         0.288418     -0.483766      0.589038
Co	      4.17963      4.15904      4.12132         0.248066      0.463710     -1.323238
Co	      2.09404      4.14966      6.18695        -0.970361     -0.159866      0.077503
Co	      4.19537      4.19204      8.22485         0.963365      1.755250      0.014317
O	      2.09674      2.02469      2.10691        -0.037050     -0.956660      1.654247
O	      4.25755      4.12926      2.22820         1.096619      0.156784      1.584073
O	      4.11275      2.16412      4.19671        -0.005098      1.005545      0.815266
O	      6.11508      4.21798      4.10901        -0.836853     -0.143585     -0.770683
O	      6.02945      2.15223      6.18764        -1.340325     -0.045886     -1.097432
O	      8.25821      4.33568      6.20428        -0.006164      2.394106      0.025689
O	      2.13391      4.14011      4.19035        -0.122921     -0.075943      0.702007
O	      4.18677      6.17311      4.16603         0.078965     -0.262840      0.039894
O	      4.02869      4.04785      6.06994        -0.726689     -0.399710      0.145352
O	      6.36058      6.37196      6.11395         0.698820      1.022324     -1.008452
O	      6.09135      4.20001      8.35938        -1.154309     -0.120035      1.121696
O	      8.32570      6.38607      8.24678         0.114935      1.382216     -0.199018
O	      2.08820      6.09267      6.14238         0.070088     -1.571693     -0.322180
O	      4.31559      8.30766      6.10988         1.594880      0.049960     -1.018465
O	      4.10474      6.10513      8.25457        -0.963507     -2.118491     -0.088683
O	      6.41063      8.37428      8.12443         0.561901      0.904979      0.074437
O	      6.33957      6.23023     10.30043         1.355950     -0.356307      0.078639
O	      8.32111      8.22766     10.39122         0.104321     -0.922074     -0.976575
