# total energy = -161.88350546 eV
 
CRYSTAL
PRIMVEC
5.992892 0.015701 -0.020787 
1.669446 7.759797 -0.067985 
1.407445 2.531201 7.380500 
PRIMCOORD
27 1
Sc	      4.58614      7.74657     -0.07357        -0.024147      0.549185     -0.304761
Sc	      4.54016      6.06779      2.45356        -0.947292     -0.293397     -0.194324
Sc	      6.00771      5.22932      7.30907        -0.229054      0.040483     -0.498665
Sc	      4.44127      4.28448      4.89963        -0.665633     -0.776988      0.131612
Co	      7.78562      7.79872      7.20844         0.026430     -1.167147     -0.732207
Co	      2.95103      3.39077      2.39625         0.200604      0.548801      0.413643
Ni	      0.06280      0.01409      0.00585         0.376165     -0.029936     -0.435879
Ni	      6.23491      8.58696      2.55683        -0.704986      0.063062     -0.145000
Ni	      6.02715      3.42218      2.41860         0.399660     -0.019922      0.560665
O	      7.56477      7.82996      3.60560        -0.126378     -0.005104     -0.150659
O	      6.30157      8.47920      6.30223         1.280737     -0.577602      0.412407
O	      3.08392      8.56944      6.18672        -0.444224      0.339185      0.585851
O	      4.70792      7.79477      3.51573         0.989154      0.702460     -0.447756
O	      3.18997      6.93346      1.13817        -0.043433      0.345506     -0.189695
O	      6.12612      6.76277      1.11128        -0.188902      0.026260     -0.398688
O	      7.53858      6.19878      6.30640         0.534888      1.607431      1.151100
O	      4.51676      5.92668      6.08038         0.040110     -0.209952      0.018859
O	      3.02012      4.99019      3.49084         0.518002     -1.329290     -0.939018
O	      5.92179      5.08449      3.66000        -0.724825     -0.902772     -0.895910
O	      4.35967      4.20809      1.33435         0.775825     -0.369619      0.819595
O	      1.45278      4.28266      1.21084        -0.789131     -0.136122     -0.176410
O	      2.96067      3.35404      6.11118         0.079869      0.031667      0.525480
O	      5.89413      3.41437      6.17361        -0.485837      0.178754      1.286648
O	      4.34029      2.61250      3.50442        -0.021328      0.659249     -0.927281
O	      1.63488      2.68710      3.42346        -0.099833      0.602103     -0.932447
O	      5.83306      1.62522      1.28440        -0.516526      0.228796      0.848548
O	      3.06505      1.83943      1.25557         0.790087     -0.105088      0.614293
