# total energy = -149.80085223 eV
 
CRYSTAL
PRIMVEC
5.816465 0.008966 -0.011240 
1.472334 7.559246 0.002799 
1.412600 2.432247 7.123888 
PRIMCOORD
27 1
Sc	      5.75876      6.67185      4.69882        -1.013279      0.499861     -0.597791
Co	      2.96390      9.91425      7.09288         1.656564     -0.368339      0.095957
Co	      5.81655      9.93414      7.09382        -1.496405      0.244840     -0.614775
Co	      4.31737      2.52057      0.02642        -0.797143      0.853973     -0.024037
Co	      5.86014      5.02979      0.03592         0.407677     -0.270469      0.449645
Co	      4.31068      0.83999      2.37880         0.130224     -0.341548      1.460143
Co	      5.82279      3.36796      2.39499         0.371448      0.559457      0.569066
Co	      2.87755      6.69518      4.74779         1.052941     -0.011672     -1.679999
Ni	      1.49706      4.10370      4.73236         0.443020     -0.761782     -0.401287
O	      3.02422      1.48517      1.13471         1.063614     -0.808488     -0.545621
O	      5.73166      1.81406      1.20145        -1.580744      0.264449     -0.228327
O	      1.28965      4.19075      1.24785        -1.880145      0.140924      0.083032
O	      4.54257      4.18709      1.19503         0.930875     -0.733114     -1.228380
O	      5.87171      6.73764      1.00427        -0.095122      0.211084     -0.832683
O	      2.93608      6.80220      0.99788        -0.054412      0.800023     -1.350382
O	      1.33179      2.60662      3.42322        -0.885816      0.859056     -0.187656
O	      4.42750      2.54410      3.36282         1.203317     -0.099946     -1.043929
O	      5.80465      4.91810      3.56812         0.698444     -1.270396     -0.434678
O	      2.87242      5.17479      3.70854        -0.438176      1.243359      1.479926
O	      4.29019      7.55308      3.59794         0.337267     -0.221328      0.446046
O	      7.14068      7.58869      3.45272        -0.989057      0.425660     -0.462801
O	      5.88721      3.19816      6.08869         0.297026      0.665629      0.848351
O	      2.86268      3.14162      6.03423        -0.157016     -0.926669      1.136723
O	      4.44952      5.72428      6.06359         1.099530     -0.555766      0.631884
O	      7.30434      5.89365      5.97219        -0.402620      0.186631      0.080133
O	      2.80944      8.14628      5.95927        -0.999338     -0.664175      0.892421
O	      5.89648      8.30897      6.04474         1.097324      0.078746      1.459018
