# total energy = -160.56665446 eV
 
CRYSTAL
PRIMVEC
6.022857 -0.060227 0.080348 
1.578376 7.749521 -0.035938 
1.505506 2.519272 7.295963 
PRIMCOORD
27 1
Sc	      4.49932      2.52759      7.24360        -0.254388     -0.004424      0.173128
Sc	      4.41309      6.03965      2.52906        -0.650731      0.224283      0.029811
Sc	      6.16762      8.49840      2.60699        -1.082364      0.593919     -0.202337
Sc	      6.10646      3.40098      2.45185         0.422565     -0.086620      0.367208
Co	      7.60466      7.62597      7.31464         0.142835      0.097482     -1.010867
Co	      2.94738      3.36569      2.46327        -0.660907     -0.120452      1.029767
Ni	      6.08468      5.06950      7.26295         0.232777      0.440174     -0.465668
Ni	      4.53363      4.21277      4.88959        -0.483581      0.025136     -0.212611
Ni	      3.13057     10.24946      7.23199         0.424431     -0.119547     -0.367448
O	      7.57350      7.71799      3.68600         1.155580     -0.671640      0.874667
O	      6.27884      8.41253      6.30408         1.485502     -0.917521      0.867178
O	      2.95567      8.45355      6.23415        -1.132304     -0.212197      1.037684
O	      4.58691      7.71677      3.63957         0.449481     -0.067604     -0.335365
O	      3.11809      6.97201      1.18338        -0.030135      0.364065     -0.621501
O	      6.06378      6.78697      1.23114        -0.250301      0.191300     -0.447022
O	      7.52925      6.06407      6.33199        -0.266377      0.708213      1.089811
O	      4.70840      5.72678      6.10507         0.733224     -0.362678      0.613934
O	      3.02720      5.01275      3.58181         0.604478     -2.461623     -0.449186
O	      5.89275      5.01641      3.73197        -1.238706     -0.057578     -0.118260
O	      4.60390      4.30595      1.22554         0.248147     -0.519634      0.256293
O	      1.46864      4.36223      1.17325        -0.070768      0.082511     -0.448722
O	      3.09819      3.33507      5.99655         0.328330      0.183244     -0.049888
O	      6.10349      3.31299      6.11985        -0.676920      0.539376      0.734194
O	      4.46693      2.62547      3.61301        -1.010180      0.525045     -1.145131
O	      1.62049      2.57949      3.42783         2.042579      0.813747     -1.178155
O	      5.91081      1.70797      1.17734        -1.028273      0.115805     -0.386110
O	      3.18730      1.79206      1.16373         0.566007      0.697220      0.364596
