# total energy = -184.55871123 eV
 
CRYSTAL
PRIMVEC
0.004616 6.257365 6.305001 
6.283474 -0.001342 6.310886 
4.196644 4.183210 -0.008537 
PRIMCOORD
27 1
Ti	      0.12348      6.28290      6.33552         1.559814     -1.835436      0.774957
Ti	      4.21005      4.12295      4.24508        -0.846042      1.367846     -1.537694
Ti	      4.14916      8.19044      4.28067         0.189981     -1.273654      2.102141
Cr	      2.12023      4.11676      2.09062         1.511525     -2.948603      0.872972
Cr	      6.26222      6.27076      8.43555        -2.093362      1.096062      0.246662
Fe	      4.12930      2.11851      6.27909        -0.397595     -0.739111     -0.633392
Fe	      4.13820      4.19101      8.36329        -0.688948      0.549131      0.453245
Co	      6.34603      8.35770     10.47631        -0.345966      0.119372     -0.602040
Co	      6.34945      4.18118      6.25634        -0.104190      0.364830     -0.687507
O	      2.09839      2.18774      2.08634        -0.135044      2.559240     -0.023919
O	      4.11966      4.21299      2.06034        -1.833133      0.153891      0.250563
O	      4.20136      2.23589      4.15319         1.597878      0.638824      1.520756
O	      6.13591      4.19990      4.17730         0.045912     -1.743973      1.971059
O	      6.22434      2.02370      6.23550        -0.756119      1.368015     -1.499602
O	      8.44459      4.15494      6.37764        -1.783676      1.645394      0.836249
O	      2.12187      4.17179      4.13141        -0.048625     -0.037490     -1.511979
O	      4.18944      6.31627      4.22418         0.107611      0.116357     -0.220776
O	      4.17995      4.24910      6.20883         1.832923     -1.623416      0.541550
O	      6.31459      6.21764      6.45030         1.281199     -1.929237      0.744595
O	      6.31752      4.21106      8.49482         0.288987      0.812936     -1.320550
O	      8.29889      6.28053      8.42119        -0.942641     -0.223456     -1.630697
O	      1.93103      6.27913      6.35002        -0.908263     -0.143691     -0.035354
O	      4.21506      8.44830      6.15752         0.294188      1.796855     -0.815060
O	      4.26011      6.15353      8.41133         2.092301     -0.577220      0.054213
O	      6.37516      8.26141      8.43506         0.722716     -0.832101      1.981212
O	      6.28692      6.17587     10.57452         0.103391      1.323881     -1.029710
O	      8.53050      8.31988     10.40069        -0.744826     -0.005245     -0.801893
