# total energy = -150.77978769 eV
 
CRYSTAL
PRIMVEC
0.001277 6.240855 6.172519 
6.338022 -0.012215 6.185821 
4.219345 4.163513 -0.002096 
PRIMCOORD
27 1
Ti	      4.15947      2.17153      1.95785        -1.022853      0.444409     -0.211259
Ti	      4.37350      1.97991      6.17140         1.846613     -1.070018     -0.646986
Fe	      6.26044      6.26666      4.10899        -0.199637     -0.079201     -1.052740
Fe	      8.46112      8.34692      8.32788        -0.316012     -0.155082      0.027810
Cu	      6.32785      4.15609      6.15406         0.759532     -0.919274     -0.562663
Cu	      6.33499      6.22110      8.28087         0.402158      0.103712      0.252234
Ni	      2.11179      0.02467      2.03694        -0.639908      0.508290      0.102681
Ni	      4.19706      8.32305      4.14253         0.072185     -0.472737      0.564636
Ni	      2.13084      4.19809      6.18166        -0.164686      0.566280     -0.630479
O	      6.35702      6.13967     10.14262        -0.134023     -0.863358     -0.422412
O	      2.23373      2.07049      2.07942         0.689290     -0.824203      1.205151
O	      4.28296      4.02549      2.07123         1.040365     -0.602627     -0.097068
O	      4.01312      2.11813      4.16678        -0.763288     -0.045462     -0.116614
O	      6.28012      4.38266      4.17528        -0.101843      0.690307      0.281385
O	      6.23686      2.09327      6.09430        -1.086959      1.007382      0.229212
O	      8.34954      4.28734      6.17982        -1.144014      0.489870     -0.175165
O	      2.05209      3.99756      4.17511        -1.270084     -0.459041      0.798437
O	      4.42407      6.29890      4.10398         0.653183      1.266253      0.124558
O	      4.22017      4.08340      6.25599         0.241914     -0.236048      1.267368
O	      6.41259      6.29500      6.29391         0.232517     -0.147338     -0.042846
O	      6.26562      4.24026      8.16196        -0.625571      1.070610     -0.091020
O	      8.49892      6.30374      8.11936        -0.931990      1.097459      0.010947
O	      2.12397      6.15419      6.20925        -0.002720     -0.694765      0.568350
O	      4.25105      8.32361      6.26366         0.773691      0.282240      0.364784
O	      4.15915      6.27004      8.25636         0.066771     -0.806991      0.183097
O	      6.28106      8.28426      8.28432         0.473220     -0.336259     -0.876329
O	      8.49239      8.28101     10.22439         1.152149      0.185592     -1.055070
