# total energy = -157.57641710 eV
 
CRYSTAL
PRIMVEC
-0.046526 6.224923 6.227211 
6.087973 -0.071911 6.252937 
4.042715 4.151219 -0.032137 
PRIMCOORD
27 1
Ti	      6.14418      4.12316      6.29084        -0.622256      1.286251      0.549350
Ti	      3.87821      6.30657      6.25712         0.337117     -0.118832     -0.384492
Fe	      3.96310      4.17040      4.13674         0.618595      0.216957      0.462574
Co	      4.02457      6.14971     10.32470         0.592073     -1.119001     -0.574779
Co	      6.04086      8.23498     10.33170         1.636836     -0.493901     -1.166475
Co	      2.03657      4.13379      2.06439        -0.262083     -0.247812      1.447488
Cu	      4.00555      8.26843      8.27988         0.120590     -0.116590     -0.911400
Cu	      4.07903      6.19375      2.07720         0.337680      0.178531      0.436905
Cu	      8.07939      6.20383      6.26366        -0.926981      0.372549      0.147456
O	      5.97743      8.26489      8.42647        -0.570656     -0.194615      2.134902
O	      1.99500      2.20389      2.05560        -0.285477      1.741792      0.002807
O	      3.97151      4.13624      2.11247        -0.851798      0.241599      0.451518
O	      4.12196      1.97660      4.08019         0.647732     -0.241167      0.196153
O	      6.09452      4.00268      4.20161         0.548869     -1.221391      0.343161
O	      5.98293      2.12144      6.05001        -0.939029     -0.105627     -0.618447
O	      8.06268      4.05388      6.17430        -0.245834      0.899902     -0.282827
O	      2.04829      4.12596      3.97280        -0.359706      0.067007     -2.158154
O	      4.05477      6.13372      4.34110        -0.235922     -0.504599      0.248552
O	      4.10543      4.18499      6.18649         0.775638     -0.576436     -0.610357
O	      6.09582      6.05741      6.24323         0.521056     -0.969867      0.040014
O	      6.16363      3.99652      8.22248         0.959889     -1.224750     -0.524273
O	      8.22397      5.99907      8.29954         1.030320     -1.308289     -0.827499
O	      2.06927      6.19886      6.24804         0.408176      0.341511      0.063829
O	      4.05426      8.18436      6.26430        -0.360423     -0.473494      1.210798
O	      3.99522      6.23502      8.34964        -0.088792      0.808089      0.718435
O	      5.91840      6.29353     10.38135        -1.311279      1.497893     -0.314765
O	      7.96207      8.40360     10.33815        -1.474334      1.264289     -0.080475
