# total energy = -201.42111370 eV
 
CRYSTAL
PRIMVEC
0.012026 6.298718 6.259333 
6.339324 -0.000055 6.271396 
4.217660 4.198669 0.008467 
PRIMCOORD
27 1
Ti	      2.16449      2.11792      0.06720         1.645398      1.329694     -1.131589
Ti	      8.38675      4.24502      4.21416         1.765968     -1.905367      2.767954
Ti	      6.33443      8.36604     10.42640         1.448585     -1.599035      0.790471
Ti	      4.23798      6.25119      6.38267        -0.443515      1.015097     -0.082172
V	      6.45997      6.19185      8.35991         2.488704     -1.440936     -0.021310
V	      2.16840      2.08168      4.14850        -0.694912      3.078307      0.752489
Cr	      6.26182      2.15522      8.32779        -1.524653      0.699010     -1.098289
Cr	      4.16243      4.23719      4.16679        -1.906138      0.051502      0.805030
Cu	      6.25178     10.30673      8.13214        -0.916673     -0.493759     -0.522197
O	      1.98797      2.20967      2.00004        -1.009751     -1.366316      2.153717
O	      4.18237      4.33444      2.17458         1.301041      1.088648      1.158725
O	      4.28468      2.13558      4.20162        -1.217004     -0.535048     -0.153591
O	      6.32005      4.13551      4.24701         0.270318      0.585034     -1.437793
O	      6.42642      2.07848      6.27100         0.692852      0.079116      0.213795
O	      8.46198      4.11856      6.12292        -0.159447     -0.724522     -2.254888
O	      2.21212      4.14226      4.19379         1.783724     -2.114504     -0.293350
O	      4.27598      6.23939      4.16034         1.835322     -1.001974     -0.137720
O	      4.17516      4.35677      6.20907         0.215637      0.801138     -1.598147
O	      6.20204      6.31523      6.27487        -0.477409     -0.306958     -0.377567
O	      6.32141      4.20239      8.37824         0.333683      1.911422     -0.067039
O	      8.45525      6.30696      8.32615        -1.963652     -0.316803      0.114204
O	      2.24968      6.43026      6.14920         0.712889      0.126938      1.565733
O	      4.10573      8.31716      6.30935        -1.539064     -1.531351      0.097201
O	      4.36660      6.29672      8.36894         0.462614     -0.206646     -0.219602
O	      6.36303      8.25433      8.51654         0.113904     -0.459651      1.054958
O	      6.27478      6.34482     10.44815        -1.589463      1.673631     -2.274093
O	      8.34187      8.49677     10.55524        -1.628959      1.563333      0.195072
