# total energy = -184.46701170 eV
 
CRYSTAL
PRIMVEC
-0.000181 6.368265 6.146138 
6.385692 -0.007901 6.154284 
4.246079 4.239526 0.006086 
PRIMCOORD
27 1
Mn	      6.32766      4.27296      6.10876        -1.165781      0.735033     -1.183798
Mn	      2.12166      4.28191      6.10754        -0.033894      0.574563      0.231110
V	      0.03534      6.34217      6.12666         2.502367     -1.775294      0.014701
V	      4.27069      2.17838      6.06398        -0.825236      3.696688     -2.375598
Cr	      2.16658      8.43311      6.13288         1.980433     -1.961303     -0.524832
Cr	      8.46276     10.53540     10.20473        -1.009485     -0.658429     -2.362310
Cr	      4.25467      6.36688      2.15161         0.351562     -0.441817      3.543670
Cr	      6.37140      6.38835      8.24897        -0.662272      1.243474      0.807523
Co	      2.13619      4.19944      2.24148         0.581407     -0.539606      3.005900
O	      2.01949      2.14692      1.99301        -1.511219      1.436854     -1.088284
O	      4.22555      4.35167      1.97000        -1.513406      1.250089     -1.795800
O	      4.26517      1.98424      4.28481         0.054831     -1.134915      2.410304
O	      6.46641      4.22138      4.20666         1.699389      0.141117      0.893020
O	      6.35560      2.07447      6.21473        -0.246700     -0.039321      0.737017
O	      8.51697      4.19988      6.12837         0.101923      0.123770      0.144926
O	      2.11962      4.24976      4.22239        -0.077055      0.069937     -1.939279
O	      4.24569      6.37470      4.05514        -0.022152      0.017928     -2.480407
O	      4.29663      4.08254      6.12045         0.061576     -3.038222      0.001700
O	      6.51667      6.37392      6.22676         1.532119     -0.352946      0.612199
O	      6.40265      4.24951      8.07756         1.072620      0.015130     -0.514800
O	      8.51131      6.28082      8.06607         0.114962     -1.348559     -0.778614
O	      2.05597      6.41420      6.14928        -2.560434      0.093802     -0.238000
O	      4.17338      8.60260      6.18258        -0.406362      1.996402      0.026341
O	      4.39161      6.35586      8.24522         1.409791     -0.122506      1.601659
O	      6.39231      8.37969      8.06801         0.010509     -1.573820     -0.940402
O	      6.26070      6.40001     10.27170        -1.344191     -0.091158      0.769000
O	      8.48400      8.55707     10.33181        -0.095303      1.683107      1.423055
