# total energy = -169.06191211 eV
 
CRYSTAL
PRIMVEC
0.042903 6.261911 6.585722 
6.146606 0.035553 6.594161 
4.125634 4.207546 -0.004148 
PRIMCOORD
27 1
Sc	      2.15166      8.35644      6.56162        -1.112971      0.052414      0.179005
Ti	      6.15103      0.09705      6.58226        -0.428287      1.844605      0.249938
Ti	      2.03797      4.22900      2.30015         0.802413      0.054320      0.036797
Ti	      8.13961      8.38547      8.66275        -0.073693     -0.599679      0.243468
Co	      3.98767      0.09824      4.27007        -0.239089      1.303913      0.191344
Cu	      4.14693      6.32317      2.27685         0.074307     -0.428526     -0.321463
Cu	      0.05231      4.15254      4.39040         0.153504      0.481556     -0.349985
Cu	      6.18313      8.32574      6.58137         0.687634     -0.066565      0.465731
Cu	      4.20035      6.23009      6.48784         0.176608     -0.665207      0.120483
O	      6.11471      6.39147      6.56955        -1.130762      0.991686     -0.020621
O	      2.00244      2.25954      2.09799        -1.343867      0.670782     -0.187874
O	      4.03639      4.31041      2.09363        -0.828766      1.393507     -0.567997
O	      4.12425      1.88604      4.33735        -0.520629     -2.131707     -0.084483
O	      6.35203      4.18550      4.40755         1.948240      0.516446     -0.246014
O	      6.21508      1.97380      6.47499         0.553547     -1.125774      0.638580
O	      8.30434      4.22137      6.73582         0.967093     -0.718322     -0.068678
O	      2.06311      4.22786      4.15614        -1.641154     -0.103928      0.524213
O	      4.13969      6.41609      4.53932         0.243523      1.252304      0.093096
O	      4.04965      4.08151      6.74761        -1.186235      0.980275      0.441082
O	      6.20827      4.19169      8.63908        -0.469966     -1.297413      0.955157
O	      8.30273      6.34265      8.85156         1.416414      0.309868     -0.067097
O	      2.04524      6.24655      6.55978         0.696309     -0.732109     -0.081765
O	      4.21521      8.54643      6.78183         0.758640     -0.962253     -0.688802
O	      4.13646      6.13348      8.78716        -0.243557     -0.843828     -0.210872
O	      6.33851      8.34748      8.92760         0.560334      0.102770     -0.888022
O	      5.99863      6.18731     11.18785        -0.831287     -1.034898     -0.093454
O	      8.33095      8.55541     10.93959         1.011696      0.755761     -0.261766
