# total energy = -103.12660349 eV
 
CRYSTAL
PRIMVEC
-0.000001 2.100805 2.100591 
8.197129 -2.158342 2.158187 
-0.015860 4.285231 -4.284932 
PRIMCOORD
16 1
Li	      0.00915      2.28007      1.92049        -0.002242      0.011375     -0.011206
Li	      1.94400      2.09744     -0.00011         0.038565     -0.008169      0.009545
Li	      4.07366      2.12907     -2.12782         0.009828     -0.010463      0.007799
Li	      6.24423     -0.04481      2.14851        -0.036816     -0.015493      0.014131
Ti	      2.02639      4.25391     -2.15682         0.120750     -0.013974      0.012272
Ti	      6.14105      2.14903     -0.04956        -0.127207      0.105625     -0.105542
Ni	     -0.00601      4.13879      0.06241        -0.003748      0.019373     -0.019241
Ni	      4.09029      2.08400      2.11702        -0.003670      0.011404     -0.010451
O	      4.21612      2.06606      0.03422         0.174281      0.091285     -0.091952
O	      3.97087      0.00804      2.09277        -0.156440     -0.089853      0.089803
O	      6.13770      2.19965      2.00147         0.024919      0.063611     -0.064181
O	      6.14387      4.10610      0.09486         0.012116     -0.131749      0.132688
O	     -0.00246      2.14535     -0.04493        -0.002197     -0.115559      0.116562
O	      2.06023      2.25784     -2.25688         0.072520      0.096591     -0.094888
O	      8.18363      2.04272      0.05811        -0.006827      0.079591     -0.080219
O	      2.01837     -0.12038      0.12094        -0.113830     -0.093596      0.094879
