# total energy = -198.23979373 eV
 
CRYSTAL
PRIMVEC
0.001957 6.235778 6.295965 
6.294065 -0.013642 6.311380 
4.195822 4.167430 -0.008727 
PRIMCOORD
27 1
Ti	      8.31047      2.17259      6.44254        -1.136845     -0.204735      1.994130
Ti	      6.22095      6.25063      4.24695        -1.657683      1.790334     -0.728391
Ti	      2.16510      6.08371      4.24679         0.585126     -2.974769     -0.944220
Ti	      6.33905      6.14272      8.28337         3.741197     -2.146923     -0.838677
V	      4.18941      2.19929      2.04448        -0.478459      5.621131     -1.901516
V	      8.40843     10.37500     10.51970        -0.122355      0.508685      3.086666
V	      6.30080      2.14664      4.22447        -0.857700      0.396344      2.657696
Fe	      4.22108      6.13559      6.22497        -0.938564      0.913363     -0.626566
Ni	      4.18478      4.14646      8.31559         0.678806     -1.132833     -0.524072
O	      2.08478      2.09751      2.11280         2.577191     -0.121414      0.324407
O	      4.19965      4.07557      2.08614         0.091913     -4.620960     -0.064416
O	      4.15948      2.04786      4.12438         0.594043     -1.723495     -1.099452
O	      6.32380      4.25517      4.21606         2.425109     -1.030930     -0.292442
O	      6.40643      2.06347      6.31892         0.695541      0.133730     -3.912789
O	      8.41972      4.02761      6.30285         0.158816     -0.486274     -3.891553
O	      2.06782      4.15755      4.22358         0.168142     -0.208891      0.169652
O	      4.18539      6.22716      4.11484         0.970021     -0.095247      2.060381
O	      4.20621      4.19646      6.33433         0.016237      0.291469      0.517690
O	      6.36973      6.26571      6.26935        -1.900709     -0.225160     -0.831904
O	      6.23131      4.31516      8.40131        -0.848260      1.222403     -0.235732
O	      8.29469      6.26175      8.51589        -1.596724      0.931902      1.205372
O	      2.05660      6.30019      6.15360         1.639451      0.631759     -1.335767
O	      4.05174      8.21140      6.36278        -0.452913     -0.830215      2.688287
O	      4.30125      6.28663      8.42387         0.038425      0.187409      0.894914
O	      6.29214      8.25634      8.41230        -1.279952     -0.044074      2.271934
O	      6.35710      6.27085     10.37740        -1.284565      1.738944     -0.210984
O	      8.38798      8.26890     10.58858        -1.825290      1.478445     -0.432648
