# total energy = -143.97228701 eV
 
CRYSTAL
PRIMVEC
0.008094 6.045568 6.354117 
6.231161 0.005186 6.357455 
4.176253 4.055237 -0.019134 
PRIMCOORD
27 1
Sc	      6.22409      2.08811      8.50964         0.288378     -0.485144      0.298018
V	      6.32301      3.92644      2.34628        -0.187753     -0.473219      2.004010
Cr	      8.24355      6.06459     10.62615        -0.234732      1.005258     -0.000212
Ni	      4.16929     10.05205      6.31468        -0.314801     -0.379992     -0.117955
Ni	      2.11380      2.14809      4.25849         0.269148      0.396471     -0.592222
Ni	      4.13597      2.04992      6.28819         0.396494      0.107720     -0.104001
Ni	      6.28352      4.03258      6.35944         0.366196     -0.665301     -0.880373
Ni	      4.14126      6.07090      6.29313        -0.392904      0.246557      0.282845
Ni	      6.23403      6.08632      8.46295        -0.613198      0.541561      0.649447
O	      2.07777      1.88057      2.19039        -0.264985     -0.603214      0.652674
O	      4.45229      4.03580      1.99932         0.704777      0.222638     -0.739705
O	      4.08146      2.04653      4.36112        -0.642591      0.046201      0.329749
O	      6.31155      4.01483      4.09780        -0.025796      0.668485     -0.613368
O	      6.19132      1.98522      6.38044        -1.005770      0.402721      0.548129
O	      8.33761      4.17279      6.31743        -0.467322      1.220890      0.159341
O	      2.12900      4.24779      4.17978        -0.165558      0.340735      0.146193
O	      4.15056      6.05347      4.23584        -0.280246      0.027494      0.548029
O	      4.28718      3.97287      6.32131         0.773909     -0.337791      0.011441
O	      6.19982      6.04931      6.34461         0.388668     -0.917585     -0.203979
O	      6.24153      4.08662      8.41265        -0.038306      0.923201     -0.663007
O	      8.30052      6.06610      8.53785        -0.339752      0.025353      0.371722
O	      2.07182      6.02354      6.19518         0.026704     -0.088887     -0.870515
O	      4.15016      8.10278      6.31817        -0.050842     -0.150943     -0.135521
O	      3.98392      6.05533      8.36838         0.168147     -0.213356     -0.948003
O	      6.27369      8.19467      8.47750         0.197469      0.010899     -0.387985
O	      6.35715      6.04647     10.57674         1.271058     -0.038923      0.185421
O	      8.35856      7.79635     10.57390         0.173607     -1.831831      0.069826
