# total energy = -163.70811169 eV
 
CRYSTAL
PRIMVEC
0.009482 6.307062 6.257372 
6.333843 0.005876 6.260831 
4.212474 4.196948 0.013928 
PRIMCOORD
27 1
Sc	      8.39087      4.16502      4.19613         0.185707      1.083651      0.134460
Ti	      4.27971      6.21400      2.22568         0.958290     -0.706375      0.378575
Ti	      4.24925      2.17144      6.22600        -0.418808      0.746374     -1.546628
Ti	      2.00099      4.31990      6.10627         0.112214     -0.116085     -0.107650
Cu	      2.17402      8.29886      6.27198         0.417770     -0.632088      0.344928
Cu	      6.31629      6.29310      8.34519        -0.147751      0.199987     -0.066469
Ni	      6.33393      8.41111     10.41056        -0.773623      0.553662      0.190092
Ni	      2.09409      4.19361      2.14378         0.474448     -0.494900      0.428022
Ni	      4.24321      4.21444      8.34881         0.204749      0.205242     -0.367918
O	      2.01284      2.12644      1.96651        -0.810383      0.854884     -0.898179
O	      4.15647      4.34547      2.10206        -0.854233      0.965116      0.301389
O	      4.27123      2.08303      4.27104         1.032711     -0.551025      1.148841
O	      6.34774      4.00450      4.13192        -0.158376     -1.033339     -0.005469
O	      6.20419      2.15201      6.30624         0.531309     -0.104225     -0.032464
O	      8.42559      4.35339      6.29186        -0.054506     -0.474997      0.144587
O	      2.10607      4.19324      4.25148        -0.259833      0.059415      0.061380
O	      4.26544      6.30255      4.04276         0.074263     -0.008746     -0.440509
O	      4.13278      4.10752      6.28116        -0.860752     -0.743479      0.882416
O	      6.44788      6.38437      6.32181         0.523567      0.781688      1.295469
O	      6.32901      4.21889      8.38275         0.016459      0.234442      0.164015
O	      8.50351      6.32137      8.29337        -0.244227      0.117430     -0.332750
O	      2.14050      6.17735      6.29071        -0.229070      0.359196     -0.025953
O	      4.33990      8.41221      6.25884        -0.203760      0.220738     -0.243796
O	      4.34489      6.24002      8.35948         0.710029     -1.091958      0.155097
O	      6.40035      8.30371      8.34139         0.878869     -0.923513     -0.222319
O	      6.33365      6.49891     10.33143        -0.488977      0.204805     -1.280980
O	      8.33861      8.38539     10.55893        -0.616085      0.294100     -0.058185
