# total energy = -163.58379804 eV
 
CRYSTAL
PRIMVEC
-0.003049 6.305684 6.374356 
6.268496 0.010428 6.359942 
4.193394 4.208710 -0.007553 
PRIMCOORD
27 1
Sc	      4.05456      2.08602      2.11394         0.158435     -1.070014      0.086266
Sc	      4.24476      2.09321      6.24387        -0.403044     -0.061695     -0.706481
Sc	      2.05568      4.26796      6.21907        -0.282334     -0.825273     -0.206443
Sc	      6.30124      6.25402      8.66336        -0.280919     -0.097504     -0.430408
Mn	      8.35077      8.45302      8.56457        -0.315642      0.781544     -1.714491
Cu	      0.07105      2.07009      2.12270         0.379771      0.318372      0.019694
Cu	      4.24829      4.25661      4.21380         0.284557      0.077852      0.225591
Ni	      6.27862      6.34749     12.63784        -0.261475     -0.058628     -0.383216
Ni	      2.11632      4.17394      2.13976        -0.545335     -0.105925     -0.081050
O	      6.09639      4.22072      4.25695        -0.781883      0.169513      0.060527
O	      4.21869      6.12141      4.13072         0.115780     -0.837105     -0.475781
O	      2.04122      2.15515      2.12635        -0.848501      0.466424      0.202385
O	      4.15104      4.26101      1.88061        -0.308650      0.066576     -0.033713
O	      4.21344      2.31929      4.19695         0.061705      1.303814     -0.238270
O	      6.29393      2.12765      6.46079        -0.035440     -0.774782      0.384008
O	      8.52702      4.25322      6.37760         1.363449      0.323477      0.648630
O	      2.30640      4.22370      4.16649         1.229407      0.299205     -0.392638
O	      4.14380      4.23653      6.62145        -0.517831     -0.784595      0.092728
O	      6.36812      6.34317      6.49082         0.647042      0.616227      0.526379
O	      6.19229      4.14191      8.56634        -0.611609     -0.135154      0.252969
O	      8.43194      6.42183      8.46266         0.111113      0.223279     -0.163455
O	      1.90920      6.30765      6.32508        -1.242502      0.380569     -0.330400
O	      4.21148      8.37428      6.41632         0.550756      1.015989      0.588746
O	      4.19789      6.24592      8.54967         0.797744     -0.955349      0.398838
O	      6.34298      8.37308      8.46254         0.515054     -0.556018     -0.298975
O	      6.25874      6.29773     10.67175         0.157486      0.095639      1.328044
O	      8.34418      8.41564     10.39762         0.062866      0.123563      0.640517
