# total energy = -201.62943916 eV
 
CRYSTAL
PRIMVEC
0.054432 6.312766 6.284978 
6.354084 0.020652 6.319030 
4.249771 4.244977 0.000176 
PRIMCOORD
27 1
Sc	      4.32590      8.43114      8.39756        -0.598393      0.519018     -0.238595
Ti	      6.47772      6.38239     12.56140        -0.171363     -0.287226      0.916881
Ti	      6.20711      6.48566      4.23983        -1.725853      1.239044     -1.764987
V	      8.55421      6.38035     10.43919         1.843609      0.419471     -1.990033
V	      6.42742     10.55486      8.39873        -0.634747      0.135971     -0.024943
V	      8.57415     10.45512     10.48227         1.184717     -3.070759     -0.849342
V	      8.49443      6.37071      6.40913         1.078875      0.728832      2.574684
V	      6.34644      4.18681      6.40370        -1.409872     -0.827633      4.393622
Co	      2.18382      4.18816      6.29510        -0.202194      0.329963      0.136648
O	      2.16417      2.03903      2.26809         0.522755     -1.755202      1.091493
O	      4.34845      4.22337      2.01421         2.563705     -0.206832     -0.919478
O	      4.15148      2.01876      4.25635        -0.511033     -1.646649      1.157970
O	      6.45217      4.32431      4.24188         1.654193      0.240433     -0.457382
O	      6.32908      2.04621      6.32579        -1.802108      1.513108     -0.179193
O	      8.51015      4.29600      6.28351        -0.805748      0.768189     -1.890933
O	      2.16556      4.15111      4.26084        -0.150257      0.498385      1.202999
O	      4.35158      6.35424      4.22638        -1.588540      0.077211      0.046133
O	      4.34016      4.09379      6.24783         1.035892     -1.310213      0.092521
O	      6.40029      6.30477      6.22488         1.535795     -1.145203     -0.268416
O	      6.41214      4.23062      8.27865        -0.073255     -0.025946     -4.223003
O	      8.49247      6.33707      8.35343        -0.146457      0.045291     -0.778240
O	      2.07032      6.38359      6.28795        -0.750519     -0.695855     -0.309114
O	      4.29841      8.63267      6.32830         1.517929      1.040750      0.427456
O	      4.18001      6.35946      8.40647        -1.772497     -0.054526      2.292233
O	      6.39182      8.57651      8.30462        -0.026525      1.683422     -1.088992
O	      6.36065      6.35973     10.58653        -0.573684     -0.026408      0.781515
O	      8.52513      8.51332     10.49648         0.005574      1.813364     -0.131505
