# total energy = -196.41624495 eV
 
CRYSTAL
PRIMVEC
0.031778 6.353738 6.535037 
6.330836 0.074607 6.490059 
4.233672 4.219838 0.037310 
PRIMCOORD
27 1
Sc	      4.28048      4.24095      4.38201         2.167293     -0.662464      0.313780
Sc	      4.28338      6.33036      6.61423        -0.141336     -0.641195      0.704719
Ti	      4.35016      8.48862      8.66439        -0.004061     -0.890599      1.084288
Ti	      8.28065      6.55346     10.77224        -0.585399      2.162379     -1.608543
Ti	      8.44803     10.48513     10.99326        -0.822097     -1.513945     -0.950289
Cr	      2.12010      2.16640      4.31176        -0.120826     -1.371849     -0.219605
Fe	      6.32612      0.21718      6.47595         0.115211     -0.923470      0.009312
Fe	      8.33875      4.30925      8.58526         0.779385      0.436932     -0.518753
Fe	      6.38696      8.44783      6.65642         1.500977     -0.363489      0.710775
O	      2.23122      2.10501      2.31687        -0.133063      1.828182      1.877899
O	      4.16738      4.11568      2.28161        -1.260145     -0.232040     -1.427817
O	      4.16167      2.06634      4.24792        -1.632041      0.038163     -0.489514
O	      6.45785      4.34416      4.33093         0.437582      1.556328      0.049060
O	      6.29714      2.12119      6.51424        -0.025180      0.357361     -0.000595
O	      8.43972      4.22112      6.28998         1.707691      0.379620      1.221504
O	      2.17559      4.28179      4.36668         0.069089     -0.515522     -0.197281
O	      4.27471      6.32409      4.45924         1.054856     -0.417785      0.296527
O	      4.26534      4.29176      6.45713        -2.064373      0.587375     -0.604945
O	      6.33727      6.44017      6.38853        -0.326951      1.341728     -1.830040
O	      6.41584      4.31615      8.62585        -0.391352      0.041628     -0.011211
O	      8.48616      6.45189      8.95133        -0.177197     -1.918677      0.469769
O	      2.18880      6.32041      6.33714        -1.338760     -1.258213     -0.265065
O	      4.21026      8.48456      6.75235         1.581350      0.607139      0.308623
O	      4.27253      6.48505      8.75048         0.296993      1.369251      0.443452
O	      6.21441      8.56609      8.77659        -0.741407     -0.329476     -1.537550
O	      6.37396      6.39537     10.82691         0.192095      0.300302      1.828149
O	      8.45501      8.54289     10.83686        -0.138336      0.032336      0.343349
