# total energy = -102.36661634 eV
 
CRYSTAL
PRIMVEC
0.000005 2.118460 2.117883 
4.249617 -4.237499 4.236328 
4.174852 4.201023 -4.199896 
PRIMCOORD
16 1
Li	      0.22077      0.02758     -0.02460         0.002200     -0.003143      0.002828
Li	      2.05878      1.90971      0.21095        -0.011369      0.009621     -0.011467
Li	      4.18871      2.06987     -2.06582         0.000618      0.010681     -0.010609
Li	      1.96747      0.20862      1.91227        -0.059438     -0.014555      0.014465
Ti	      6.29497      2.14144     -0.01712        -0.061445      0.176548     -0.173272
Ti	      6.47665     -0.06597      2.18702         0.556148     -0.165786      0.165012
Ni	      4.05952     -0.03432      0.03707         0.029570      0.007723     -0.006538
Ni	      4.21874     -2.11073      2.11303         0.016201     -0.016283      0.016057
O	      4.39421      2.03979      0.08090         0.190850      0.083674     -0.083858
O	      4.37623     -0.02675      2.14737         0.054800      0.022464     -0.022580
O	      6.32455     -0.03006      0.03184         0.039825     -0.005634      0.005487
O	      4.06270     -2.06265      4.18272        -0.127659     -0.100282      0.100003
O	      6.32203     -1.99875      2.00140         0.112104      0.160729     -0.160388
O	      4.02696      4.20053     -2.07859        -0.510778     -0.001118      0.002064
O	      2.11021     -0.00232      0.00490        -0.156007      0.006561     -0.006130
O	      6.27731      1.95164     -1.94764        -0.075620     -0.171199      0.168926
