# total energy = -160.81091992 eV
 
CRYSTAL
PRIMVEC
0.006903 6.177193 6.359433 
6.234179 0.019473 6.346877 
4.167525 4.120914 0.001762 
PRIMCOORD
27 1
V	     10.27126      6.20999      8.50553        -3.508377      0.691664      1.896543
V	      2.09853      2.20826      4.24336        -0.180042      3.361912      2.760705
V	      6.15122      4.20319      6.35255        -2.655956      2.590651      0.824355
Fe	      2.15772      8.22786      6.30002         0.573950      0.778003     -0.598012
Fe	      6.23697      8.18588     10.47662        -0.105911      0.083580     -0.082149
Co	      2.16253      6.14525      8.44187         0.582235     -0.621160     -0.169479
Co	      4.20470      8.23326      8.46682         0.563905     -0.805659     -0.062603
Ni	     10.36080      4.11983      6.33111        -0.549883     -0.231636     -0.436324
Ni	      2.09300      6.12352      4.29014         0.007460     -0.850804     -0.373809
O	      1.93207      2.06210      2.18751         1.110434     -1.761080      0.107626
O	      4.18895      4.08640      2.06484         1.947533      0.342562     -0.740151
O	      4.12364      2.08025      4.07456        -0.729501     -0.144278     -1.699971
O	      6.24430      4.20868      4.30800        -0.029647     -0.233606     -0.122869
O	      6.25916      2.11167      6.41705         1.058232      0.184065      0.389474
O	      8.18976      4.05510      6.35384         0.254838     -1.769168      0.030920
O	      2.10316      3.99188      4.27722         0.121078     -2.752503     -0.175851
O	      4.25970      6.19890      4.12397         0.708203     -0.093549     -2.454855
O	      4.37221      4.10898      6.34954         2.987376      0.105079      0.104849
O	      6.29866      6.12133      6.21678        -0.021790     -2.104705     -2.295276
O	      6.23727      4.03200      8.36299        -0.214005     -1.733983     -2.068721
O	      8.48837      6.13490      8.53811         3.132626      0.137803      0.593642
O	      2.05637      6.23188      6.33588        -0.631453      1.332950      1.275956
O	      4.10285      8.25629      6.53028        -0.950781      0.379007      1.337432
O	      4.14546      6.37072      8.48094        -1.909587      1.286008      0.087289
O	      6.29278      8.21964      8.54099        -1.741859      2.193490      0.020376
O	      6.27308      6.23864     10.64386         1.031089      0.657964      1.006662
O	      8.25760      8.21447     10.66288        -0.850166     -1.022606      0.844241
