# total energy = -149.34760220 eV
 
CRYSTAL
PRIMVEC
0.065765 6.143117 6.227570 
6.315367 0.051625 6.240748 
4.214598 4.108309 0.031046 
PRIMCOORD
27 1
Ti	      6.29984      6.26557      8.21819        -0.247300      0.824195      0.024928
Fe	      2.12286      4.10295      2.13941         0.100973     -0.116214     -0.154969
Fe	      4.40887      4.17395      4.24817        -0.225196      0.250941      0.018945
Co	      2.22469      8.14571      6.23912         0.090738     -2.277355     -0.501629
Co	      4.29976      8.20791      8.29653         0.996508     -0.265693     -0.356924
Co	      4.24738      8.19132      4.20810         0.394673     -0.097558      0.841861
Cu	      8.37045      4.14410      4.24484        -0.344462     -0.188841     -0.471077
Cu	      0.05124      2.05255      2.05501         0.093288      0.091510     -0.105465
Cu	      4.23369      2.08742      6.18217        -0.584579      0.541224     -0.080727
O	      2.18883      6.32601      6.24842         0.080438      2.583859     -0.131953
O	      8.60178      8.28569     10.55257         1.056902      0.694761      0.934168
O	      2.31253      2.10108      1.92911         0.151387      0.547208     -0.562791
O	      4.16414      4.01411      2.22536        -0.379720      0.549121      0.733980
O	      4.22801      2.07468      4.21485         0.060377      0.087849      0.776030
O	      6.31651      4.13748      4.18225         0.642012     -0.073479      0.400881
O	      6.58965      2.10865      6.37945         0.546291     -0.112752      1.168305
O	      8.44353      4.11105      6.29845        -0.023009      0.163726     -0.171213
O	      2.01246      4.09564      4.08862        -0.787032      0.154397     -0.362334
O	      4.23070      6.17270      4.03728        -0.097754      0.601748     -1.079303
O	      4.20743      4.05199      6.13294         0.371233     -1.275201     -0.263633
O	      6.18301      6.13282      6.39319         0.672724      0.066192      0.113619
O	      6.37078      4.16396      8.47411         0.603283     -0.782073      0.758854
O	      8.31900      6.14781      8.21391         0.221160     -0.675657     -1.146730
O	      4.11973      8.22386      6.15796        -1.364252     -0.350273     -0.454345
O	      4.30543      6.26901      8.41705         0.733803      1.251109      0.627572
O	      6.27365      8.16010      8.33753        -1.777109     -0.836928     -0.259640
O	      6.29422      6.05008     10.32193        -0.985378     -1.355816     -0.296411
