# total energy = -132.38948634 eV
 
CRYSTAL
PRIMVEC
0.031610 6.236365 6.120632 
6.245478 0.021049 6.131217 
4.171000 4.172017 0.006729 
PRIMCOORD
27 1
Fe	      6.25232      4.15572      2.15901        -0.058459     -0.627564      0.777807
Fe	      4.15752      2.12004      2.16274         0.173919      0.598999      0.686253
Fe	      6.32244      6.24022      8.19188         0.671987      0.065833      0.105478
Co	      8.32926      4.18715      8.16606         0.170483      1.165864     -0.627117
Cu	      4.19651      6.21696      6.08912         0.415862     -0.429277     -0.422373
Ni	      8.31811      8.35532     12.19464        -0.566224      0.220018     -0.908017
Ni	     10.37456      6.27862      8.14366        -0.783284      0.022625     -0.020690
Ni	     10.42009      8.35482     10.21312        -0.402491      0.555630     -0.271191
Ni	      2.14113      4.17716      6.05516         0.414852     -0.185040     -0.528332
O	      4.11331      4.26181      6.10747        -0.341636      0.594370     -0.138065
O	      2.09979      2.14163      2.03623         0.169799     -0.185602     -0.437917
O	      4.09396      4.13799      2.08334         0.258295     -0.135117     -0.102280
O	      4.16616      2.07323      3.95849        -0.033279     -0.152710     -0.670512
O	      6.26051      4.18708      3.96183         0.103010      0.042357     -0.504730
O	      6.32439      2.08454      6.16338         0.520355     -0.035670      0.553521
O	      8.37562      4.10737      6.31665        -0.000076     -0.367667      1.392211
O	      1.94547      4.17956      3.95444        -0.760039     -0.102825     -0.259091
O	      4.16904      6.42652      4.11217         0.028685      0.675275      0.303920
O	      6.19769      6.31405      6.19891        -0.994782      0.515348      0.801985
O	      6.40795      4.18742      8.15355         0.684493      0.078151      0.524677
O	      8.32823      6.08166      8.11147        -0.357293     -1.484240      0.158472
O	      2.16122      6.25702      6.25954         0.971311     -0.014205      0.651702
O	      4.19443      8.28948      6.23654        -0.073124     -0.678209     -0.015226
O	      4.19479      6.30548      8.09413        -0.083027      0.467422     -0.546868
O	      6.22421      8.33177      8.15654        -0.897723      0.251277     -0.378163
O	      6.26703      6.12190     10.10740         0.053343     -0.804855     -0.821966
O	      8.52921      8.35006     10.21743         0.715043     -0.050187      0.696512
