# total energy = -163.84878074 eV
 
CRYSTAL
PRIMVEC
-0.003253 6.232884 6.264016 
6.171061 -0.020868 6.281780 
4.116135 4.169156 -0.016422 
PRIMCOORD
27 1
Mn	      6.22628      6.21003     12.44501         0.987221      0.021583     -0.692770
Mn	      4.11448      6.28400      2.13209        -0.740379      1.033494      0.492338
Mn	      2.06085      4.17032      2.14605        -1.072147      0.980312      0.376291
Cr	      6.16865      6.22880      8.33046         0.953285      0.522597     -0.728843
Fe	      4.18195      8.25705      8.42247         0.082233     -0.298321      0.346300
Co	      8.22776      2.08908      6.27318        -0.389957     -0.877153     -0.955237
Co	      8.13980      4.13270      4.18403        -1.641867      0.237055     -0.137752
Co	      4.19319      4.16073      4.25883         0.588771     -0.246752      0.581952
Co	      4.14594      6.12134      6.13529        -0.277028     -0.508361      0.052996
O	      2.07159      2.20227      1.98596        -0.206447      0.331404     -0.598467
O	      4.03505      4.09680      2.12772        -0.252413      0.379873     -0.126394
O	      4.08989      1.97688      4.12357         0.111602     -0.089795     -1.347609
O	      6.22341      4.14876      4.17950         0.236112     -0.179821      0.376187
O	      6.26802      1.99345      6.46941         0.916378     -1.021075      0.331600
O	      8.37644      4.04411      6.39576         0.591144     -0.700247     -0.272556
O	      2.12215      4.16741      4.01517         1.177274     -0.131769     -0.632060
O	      4.13195      6.24940      4.07953         0.016249     -1.378335      0.088538
O	      4.07814      4.24884      6.24412         0.136168      1.603323     -1.404743
O	      6.10613      6.24179      6.32298        -0.998017     -0.027715      1.806134
O	      6.32782      4.18977      8.35226         0.960397      0.273192      0.025084
O	      8.22639      6.09197      8.33827         0.096605     -1.316156      0.040236
O	      1.98360      6.38434      6.20523         0.131305      1.467482      0.025985
O	      4.00144      8.30168      6.29706        -0.685426      0.255532      0.829446
O	      4.15038      6.25693      8.25168         1.120928      0.864964      0.110135
O	      6.11099      8.23379      8.32240        -0.649554     -1.974164      0.097760
O	      5.99476      6.22030     10.37674        -1.274053     -0.085973     -0.005640
O	      8.18221      8.45836     10.63222         0.081618      0.864825      1.321090
