# total energy = -199.32338636 eV
 
CRYSTAL
PRIMVEC
0.001001 6.349250 6.452680 
6.478784 -0.003488 6.457239 
4.307485 4.224316 0.009432 
PRIMCOORD
27 1
Sc	      8.65246      8.50862     12.85261         0.210440     -0.451796      0.361297
Sc	      4.34615      2.13577      2.17211         0.029849      0.602129      1.083062
Sc	      6.52235      8.45684     10.66377        -0.429008      0.425544     -1.447904
Sc	      2.22144      2.12226      4.26323         0.427680     -0.569916     -0.197184
Sc	      4.29214      6.24353      6.52337         0.403769      0.126615     -1.047506
Ti	     10.57578      6.33525      8.74081         0.300442      0.068067      1.787953
Cr	      6.49590      4.22358      6.49977         0.204802      0.811030     -0.119190
Cr	      2.21160      4.21907      6.46285         1.093528     -0.876461     -0.238009
Fe	      6.44051      6.36424     12.83068        -0.221587      0.289445     -0.244973
O	      2.20177      2.11139      2.15531         0.017655     -0.036060     -0.469447
O	      4.31660      4.35760      1.99588        -0.269280      0.201924     -1.450073
O	      4.33004      2.15714      4.19957        -0.032727      0.051545     -0.390004
O	      6.44014      4.23389      4.46921        -0.000971     -0.102719      2.035140
O	      6.51632      2.20894      6.50467         0.700949     -0.761298     -0.108089
O	      8.49807      4.20308      6.48818         0.217278     -0.740677     -0.065616
O	      2.17289      4.16218      4.50382         0.152972      0.272862      1.729466
O	      4.38275      6.32333      4.16837         0.547108     -0.033819     -0.380528
O	      4.27982      4.22123      6.48413         0.011083      0.013070     -0.054324
O	      6.42708      6.32476      6.42454        -1.195738     -0.090682     -0.646592
O	      6.47482      4.06457      8.51359        -0.214274     -0.939156     -1.459716
O	      8.76111      6.30834      8.66434         0.178098      0.176560      0.066245
O	      2.21816      6.26898      6.44461        -1.114835     -0.029361     -0.009084
O	      4.36454      8.41378      6.48343         0.243691      1.189688      0.324366
O	      4.32800      6.42324      8.51666        -0.075536      0.306133     -0.053144
O	      6.43575      8.48879      8.57975        -0.888965     -0.017214     -1.026075
O	      6.45225      6.41011     10.84255         0.115931      0.253886      1.622839
O	      8.55815      8.46333     10.84926        -0.412355     -0.139341      0.397091
