# total energy = -154.60880545 eV
 
CRYSTAL
PRIMVEC
0.023740 6.079816 6.099135 
6.753305 0.004149 6.120589 
4.473095 4.038138 0.032569 
PRIMCOORD
27 1
Ti	      8.97793      6.22479     10.08512        -0.260721      2.471417     -0.562504
Fe	      4.47040      4.07979      0.14586         0.438651      0.148045     -0.281879
Fe	      4.63655      2.07057      6.04494         0.549582      0.404428      1.858066
Fe	      6.77077      4.05832     10.05299        -1.783526      0.282553     -0.067457
Fe	      6.70922      8.07208      6.29448        -0.186066      0.667581      0.665711
Co	      2.31136      3.98840      2.06000         0.374438      0.027176     -0.360445
Co	      4.43090      6.03542      6.17624        -0.654287      0.145784      2.187423
Cu	      2.36453      2.00739      4.04159         0.370501     -0.756802     -0.867989
Cu	      6.82575      4.01757      6.15937         0.348754     -0.733968     -0.258682
O	      6.74638      4.18717      4.18762         0.184021      0.693258      1.296443
O	      2.24458      2.07786      2.19173         0.298529      1.262094      0.533869
O	      4.26988      4.01232      2.04263        -1.690377     -0.190316     -0.788487
O	      4.60435      2.00164      4.20214        -0.591254      0.244362     -0.927377
O	      6.68751      2.04842      6.12903        -1.096013      0.775795     -0.036417
O	      9.20505      4.06146      6.26070         0.386951      0.593129      0.842674
O	      2.11368      3.95359      4.02673        -0.394477     -0.460026      0.021808
O	      4.19883      6.07608      4.23149         0.309575      0.829331      0.911283
O	      4.27000      4.09011      6.12624        -0.131820      0.253894      0.140091
O	      6.82120      6.04819      5.98795        -0.007649     -0.754990     -0.373757
O	      7.07163      4.04123      8.13120         1.435475     -0.182724     -0.871043
O	      9.04435      5.97350      8.20366        -0.099300     -1.568227     -0.424849
O	      2.11303      6.04719      6.01566        -0.328574     -1.313123     -0.186262
O	      4.61801      8.01719      6.02288         0.976849     -0.239796     -0.321891
O	      4.50338      6.07717      7.98569        -0.028538     -0.134103     -2.762919
O	      6.69976      8.09938      8.12669         0.028739     -0.161338     -0.231839
O	      6.99450      6.02600     10.23225         0.294819     -0.926413      1.073372
O	      9.16375      8.06036     10.11401         1.255719     -1.377022     -0.206942
