# total energy = -140.76106982 eV
 
CRYSTAL
PRIMVEC
0.008081 6.227697 6.142299 
6.203753 0.027614 6.122496 
4.158362 4.161147 -0.004827 
PRIMCOORD
27 1
Cr	      4.17263      6.20900      2.07116         0.086927     -1.232270      1.271874
Cr	      8.25660      8.35183      8.22350        -0.747386      0.121997      2.273856
Co	      2.05891      6.22819      8.13674         0.554921     -0.403911      0.219324
Co	      6.18153      4.17784      6.11045        -0.288773     -0.210536     -0.200617
Cu	      4.21563      6.22826     10.24724         0.369495     -0.352009     -0.048149
Cu	      2.07299      4.15488      2.07839         0.369230      0.054367      0.475217
Cu	      2.06680      2.08857      4.08773        -0.321681     -0.075179     -0.198620
Cu	      4.12789      2.10665      6.11900         0.422781      0.108548      0.153731
Ni	      1.97891      4.20756      6.07934        -0.408225      0.195106     -0.314625
O	      2.11434      6.21148      6.32188        -0.096789     -0.415105      0.557675
O	      4.21079      8.30391      6.15480         0.279251      0.242059     -0.318072
O	      6.14359      6.27840     10.20298        -0.932042     -0.304635      0.385101
O	      8.29908      8.39578     10.13426         0.294037      1.111272     -1.903298
O	      2.02221      1.96189      2.07153        -0.695768      0.235559      0.790649
O	      4.33223      4.24959      2.02264        -0.211172      1.469350     -0.399656
O	      4.05603      1.98932      4.14772        -0.600426     -0.845625      0.875200
O	      6.29682      4.23808      4.08989         0.910313      0.938481      0.340461
O	      6.13207      2.26340      6.17482        -0.918587      0.777517      0.713197
O	      8.13984      4.25869      6.21216        -0.718635      0.703045     -0.102593
O	      2.13863      4.05176      4.01249        -0.224227     -1.235462     -0.192591
O	      4.21766      6.25179      3.99636         1.078826      0.413608     -1.716069
O	      4.21954      4.09634      6.16904         0.107151     -0.689008      0.820157
O	      6.28078      6.15978      6.08322         0.765823      0.038645     -0.914926
O	      6.11297      4.11075      8.01942        -0.124803     -0.900633     -0.612102
O	      8.35352      6.30478      8.16511         0.837360     -0.165281     -1.120489
O	      3.99369      6.17201      8.25471        -0.900637     -0.539887      0.094013
O	      6.29337      8.47472      8.13000         1.113036      0.959986     -0.928646
