# total energy = -179.80299237 eV
 
CRYSTAL
PRIMVEC
0.025099 6.163081 6.308314 
6.317010 0.030704 6.302380 
4.226135 4.119409 0.005698 
PRIMCOORD
27 1
Mn	      4.23161      8.15627      8.46035         0.006633      0.262281      0.091403
Mn	      8.35012      4.12234      8.45533        -0.454653     -0.592291     -0.135901
Mn	      2.15049      6.18678      4.22679        -0.792683     -0.262447      1.329998
V	      6.33605      2.18030      4.17025        -0.897308      2.850338     -0.308488
Cr	      2.15873      8.21087      6.31326         0.723469      0.183583     -0.363974
Cr	      4.22159      6.12110      2.10298         0.852658     -0.246364      1.187404
Cr	      4.19361      2.05991      6.23543        -1.343648      0.103775     -1.413994
Cr	      2.11713      4.13677      6.31777        -0.219803     -0.783980     -0.476867
Ni	      4.28960      4.24080      8.35984         0.567128      1.318623     -0.015054
O	      1.99768      1.99730      2.02650         0.145434      1.849379     -0.705767
O	      3.96988      4.04025      2.16505        -0.995222      0.290191     -0.156640
O	      4.36166      2.02461      4.18898         1.910362     -0.197055     -0.033538
O	      6.34690      3.95429      4.21415         0.292572     -2.929842      0.020668
O	      6.35251      2.06895      6.26677        -0.004048     -0.130719     -0.340428
O	      8.42510      4.11965      6.38826        -0.079019     -0.130331      1.612733
O	      2.04207      4.22401      4.27229         0.125471      1.485063     -0.215568
O	      4.09599      6.15855      4.06437        -0.868873     -0.059070     -1.612300
O	      4.12011      4.06648      6.31878        -1.166887     -1.348383      0.925812
O	      6.45293      6.27810      6.25550         1.449390      1.382322      0.086572
O	      6.39670      4.05036      8.40526         0.368071     -1.436159     -0.059974
O	      8.53181      6.24927      8.26748         0.617877     -0.888138      0.651669
O	      2.13142      6.19506      6.33865         0.040502      0.106388     -2.182734
O	      4.21767      8.21267      6.46713        -0.038507     -0.261803      1.793148
O	      4.29348      6.25357      8.44830        -0.010864     -0.089839     -0.212913
O	      6.42817      8.28838      8.42976        -0.485293      0.011044      0.482825
O	      6.52462      6.38265     10.48461         1.376437      0.656589      0.081923
O	      8.43920      8.22960     10.56797        -1.119197     -1.143157     -0.030017
