# total energy = -159.17665135 eV
 
CRYSTAL
PRIMVEC
-0.004825 6.319642 6.205281 
6.222333 0.004459 6.196722 
4.146102 4.204895 0.005194 
PRIMCOORD
27 1
Ti	      8.34848     10.47463     10.44729         0.394361     -0.781656      0.792071
Mn	      4.10926      6.26661      6.23486        -0.351146     -0.213854     -0.335412
Fe	      4.13205      2.19981      2.01187         0.135461     -0.183937      0.011909
Co	      2.01501      2.24870      4.14161         0.281896      0.232516      0.520589
Co	      6.17571      4.16794      6.35747        -0.390642     -0.358500      1.302265
Co	      0.05116      6.36881      6.20916         0.090138      0.328427      0.253989
Co	      2.09727      0.02065      2.08442        -0.389048      0.183910     -1.279009
Co	      6.23504      8.44867     10.32958         0.374663     -0.295758      0.518515
Co	      6.22217      4.17444     10.23301         0.242083     -0.208740     -0.374147
O	      8.30951      6.30009      8.24118         0.051448      0.033179     -0.026825
O	      2.14130      1.96510      2.11786         0.625753     -0.541710      1.420971
O	      4.31344      4.16170      2.06277         0.621425     -0.599923     -1.514840
O	      4.20709      2.00546      4.05780        -0.207313     -0.282637     -1.139447
O	      6.33521      4.34831      4.07134         0.108570      0.244412     -0.086305
O	      6.20874      2.08760      6.01006        -0.063419      0.559344     -1.069119
O	      8.29466      4.20410      6.10217        -0.458331      0.152525     -0.757003
O	      2.06458      4.05873      4.12184        -1.709543     -1.878384     -0.054451
O	      4.13197      6.33762      4.30640         1.445836      1.322506      0.298338
O	      4.14771      4.38254      6.21476         1.684496      0.697165      0.106732
O	      6.04782      6.25796      6.18776        -0.535678     -1.021094     -1.569632
O	      6.22635      4.15289      8.32284        -0.048461     -0.105790     -0.230764
O	      2.11919      6.29879      6.35482        -0.178702      0.020459      1.934180
O	      4.14015      8.35140      6.18741         0.004078      0.082681     -0.024218
O	      4.05292      6.41825      8.22495        -0.731733      0.820417     -0.269241
O	      6.16258      8.60140      8.41716        -0.733863      1.002059      0.626863
O	      6.12806      6.25844     10.29756        -0.210341     -0.126089      1.215253
O	      8.21146      8.55540     10.30717        -0.051986      0.918471     -0.271266
