# total energy = -177.98816571 eV
 
CRYSTAL
PRIMVEC
-0.005126 6.175972 6.412051 
6.287408 0.001876 6.404995 
4.196184 4.117243 -0.003513 
PRIMCOORD
27 1
V	      2.05272      4.24770      6.36332        -1.915124      3.078878     -1.069390
Cr	      6.29295      2.09298      4.28466        -0.185642      0.935494      0.264633
Cr	      4.23338      1.98484      6.33948         1.282375     -2.674611     -0.338118
Cr	      4.21798      6.16160      6.39758        -0.963872      0.692072     -0.266108
Cr	      8.38960      8.23697      8.55509        -0.160078      0.441327      1.559097
Cr	      6.32222      6.12755      8.55421        -0.140043     -0.017760      1.058252
Fe	     10.40705      8.26262     10.72102        -0.143418      0.126146      0.842432
Co	      0.04830      1.98820      2.08048         0.708935     -2.685003      0.145187
Co	      2.16042      1.94453      4.16116         0.107895     -0.097674     -1.327976
O	      1.93454      2.06435      2.15958        -1.576395     -0.262572      1.245959
O	      4.18098      4.28606      2.14167         0.295871      3.320567     -0.129274
O	      4.26344      2.06321      4.33471         0.442624     -0.176464      1.562362
O	      6.30200      4.06028      4.25532         0.287825     -0.746614      0.313369
O	      6.20308      2.06443      6.29725        -1.886012      0.195702     -0.691022
O	      8.37387      4.20404      6.41482        -0.283938      2.508153     -0.268132
O	      1.99513      4.04910      4.49399        -0.135634     -0.713229      1.616517
O	      4.17863      6.25089      4.38640         1.187096      0.547631      0.064943
O	      4.07653      4.13513      6.50261        -0.938536     -0.789493      0.616501
O	      6.29483      6.27542      6.49723         0.608416      0.363454      0.035254
O	      6.20327      4.06439      8.65644        -0.572472     -0.269596      0.487220
O	      8.40140      6.22527      8.41869         0.152140      0.930584     -1.431369
O	      2.20471      6.02540      6.48466         0.540370     -2.473861     -0.175982
O	      4.27047      8.19242      6.36779         2.140775     -0.718317     -0.452021
O	      4.34082      6.10646      8.39729         1.158013     -1.538607     -0.783051
O	      6.36449      8.14060      8.53275         0.824015     -0.822897      0.181169
O	      6.33360      6.15032     10.53362        -0.123849      0.780979     -1.282081
O	      8.37247      8.22828     10.57053        -0.711336      0.065710     -1.778371
