# total energy = -103.50070769 eV
 
CRYSTAL
PRIMVEC
-2.081371 4.271069 -2.081886 
2.053469 4.242113 2.053446 
6.188609 -0.014389 -2.053951 
PRIMCOORD
16 1
Li	      2.07296      4.24417      2.03810         0.012831     -0.000598     -0.019042
Li	      2.11735      2.11983     -0.05972         0.007408      0.001823     -0.013898
Li	      4.09524      4.24154      0.01076        -0.006461      0.001261      0.012904
Li	      4.06613      2.10923     -2.01008        -0.012606      0.002776      0.014906
Ti	      2.04229      6.37972     -0.01341         0.005676      0.000470     -0.006682
Ti	      4.18207      6.38061     -2.15356         0.045241     -0.000123     -0.048348
Ni	      6.15376      4.24364     -2.04608        -0.021206      0.001799      0.028406
Ni	      2.05535      4.25828     -2.07989         0.024457     -0.002009     -0.027316
O	      2.10704      6.35712     -1.99870         0.049703      0.105580      0.085188
O	      2.01720      4.42711     -0.01745         0.099485      0.135270      0.097654
O	      4.02748      6.40225     -0.07880        -0.089712     -0.106071     -0.055292
O	      4.10438      4.44163     -2.07198         0.009070      0.141564     -0.004718
O	      6.16181      6.34946     -2.07075        -0.049867      0.104835     -0.005058
O	     -0.00739      4.09068     -2.04322        -0.099820     -0.137415     -0.099945
O	      6.17856      4.05107      0.00476         0.013856     -0.140479     -0.005872
O	      6.17854      2.13981     -2.05214         0.011946     -0.108682      0.047113
