# total energy = -192.12952664 eV
 
CRYSTAL
PRIMVEC
-0.014686 6.416185 6.263275 
6.526177 -0.049670 6.297071 
4.310206 4.260563 0.007159 
PRIMCOORD
27 1
Ti	      6.40071      4.29403      2.18134        -1.215704      1.770416      0.774834
Ti	      0.09753      4.20311      4.10186         3.045859     -1.633413     -1.063302
Ti	      2.21183      6.32698      4.10772         1.627013     -3.119987     -0.962148
Mn	      4.28229      0.10082      4.24528        -0.863347      0.160155      0.902352
Mn	      4.34057      4.25956      8.26016         1.337893     -1.412818     -1.374430
Cr	      4.30508      4.26447      0.02549        -0.702298      1.223916      1.528336
Cr	      8.67296      2.09081      6.30568        -0.528790      0.400504      1.184937
Fe	      4.32478      8.49893      8.36034        -0.753977      0.674523     -0.142076
Fe	      6.41447      2.13363      4.23280        -1.325519      1.385566      0.644804
O	      2.16010      1.98689      1.98296         2.108998     -1.178945     -0.771714
O	      4.44896      4.27743      2.02071         0.803439     -2.032599     -1.869586
O	      4.31738      2.16621      4.13438         2.069232     -1.871779     -1.271490
O	      6.40922      4.31418      4.05526         1.388543     -1.846915     -0.681991
O	      6.66769      1.96912      6.22722         0.322267     -1.524422     -1.712011
O	      8.80793      4.08670      6.31351         1.388627     -0.168871     -2.078876
O	      2.03007      4.40462      4.18417        -1.861656      1.536230     -0.090473
O	      4.12642      6.53990      4.25383        -0.872250      1.060420     -0.070579
O	      4.36270      4.21494      6.41895        -0.018034      0.025504      1.381912
O	      6.49779      6.36763      6.28691        -0.014128     -0.036027     -0.087439
O	      6.49809      4.22763      8.56573        -1.875333      0.162545      0.588676
O	      8.66388      6.44748      8.56204        -0.107807      1.815236      0.607492
O	      2.02536      6.50868      6.23092        -1.036819      0.516699      0.141181
O	      4.18904      8.63382      6.21678        -0.520101      1.152685      0.911534
O	      4.15923      6.30739      8.35165        -0.180689      0.655331      1.469589
O	      6.49263      8.66786      8.42069        -0.200915     -0.076005      0.981114
O	      6.62404      6.23884     10.54545        -0.893690      1.235963      1.097544
O	      8.76017      8.42499     10.44727        -1.120813      1.126088     -0.038188
