# total energy = -159.29319909 eV
 
CRYSTAL
PRIMVEC
0.037173 6.243821 6.423009 
6.234203 0.042858 6.418173 
4.159550 4.162335 0.025937 
PRIMCOORD
27 1
Sc	      6.27453      2.17565      8.51721        -0.117591     -0.130420     -0.169394
Sc	      4.28380      4.04876      4.24319         1.102659     -0.036235      0.023838
Mn	      4.11433      0.07575      4.26033        -0.344612      0.041614     -0.387544
Mn	      6.22091      8.31636      6.45599         0.184248     -0.683036      1.310384
Mn	      6.23412      6.30518      8.62341        -0.946061      0.470404     -0.432676
Cu	      8.30686      6.27556      6.44023        -0.397332      0.336211     -0.499985
Cu	      2.09046      6.27497      4.40363        -0.262870      0.478391      0.902472
Ni	      8.33314      4.18688      8.53334         0.462518     -0.837879     -0.469547
Ni	      4.17362      8.29333      4.36416        -0.269108     -0.037324      0.592558
O	      2.12083      6.06774      6.34110        -0.305715     -0.418161     -1.404303
O	      8.37132      8.56437     10.84254         0.855711     -0.024157     -0.192375
O	      2.01801      2.14952      1.98519         0.612926      1.205144      0.185184
O	      4.11345      4.22243      2.19765        -1.349480      0.611427      0.380092
O	      4.15680      2.00458      4.13336        -0.251491     -0.802529      0.651972
O	      6.34931      4.18974      4.28403         1.036348      0.156696      0.156051
O	      6.00703      2.14965      6.46746        -0.835892     -0.115893     -0.533960
O	      8.32032      4.40320      6.30829        -0.088309      0.508968     -0.156643
O	      2.10515      4.04093      4.45343        -0.470337      1.039760     -0.182585
O	      4.16073      6.20184      4.26880        -1.198758      0.471206     -0.425104
O	      4.06497      4.02048      6.40985        -0.913772     -0.889554     -0.415927
O	      6.36970      6.31894      6.66320         0.764497      0.688600      0.304887
O	      6.29140      4.33182      8.62571         0.923620     -0.001271      1.157819
O	      8.19224      6.27389      8.86485         0.426580     -0.801454      0.099158
O	      4.34930      8.28424      6.39066         0.772764      0.353756     -1.108755
O	      4.31425      6.24136      8.71824         0.465419     -0.098555      1.339930
O	      6.24813      8.22545      8.37579        -0.090660     -0.654031     -0.430836
O	      6.15285      6.30829     10.55841         0.234698     -0.831680     -0.294711
