# total energy = -188.97969429 eV
 
CRYSTAL
PRIMVEC
0.037231 6.287090 6.264264 
6.391706 0.005547 6.295745 
4.258932 4.209917 0.006057 
PRIMCOORD
27 1
Ti	      4.24411      2.25728      2.03077         0.210263     -0.699087      0.634316
Ti	      6.38962      2.18979      4.35484        -2.123462      1.779580      1.326106
Ti	      6.23007      6.24830      4.21345        -0.665000     -1.115379      0.168808
Ti	      2.34627      4.31464      6.27168         0.217818      0.344909      1.142855
Ti	      6.43727      6.13867      8.32778        -0.003635     -0.496930     -2.409935
Fe	      2.13084      2.13471      0.04344        -1.322829     -0.974863      1.323460
Co	      8.52408      4.22626      4.26966        -0.318774      0.790375      0.197872
Co	      2.22750      6.27944      4.12839         0.792828     -0.768830     -1.343537
Cu	     10.62748      8.37090     10.40795         0.605307     -0.677190     -0.473716
O	      2.26518      2.05248      2.27333         1.232680      0.321201     -0.722949
O	      4.26341      4.09320      2.08571        -0.083500      0.125161     -0.073211
O	      4.36917      2.14114      4.10182         0.074429     -1.121490     -0.693219
O	      6.39819      4.24065      4.22343         1.415240     -0.014641      0.072469
O	      6.33748      2.11344      6.19018         1.936361      0.205956     -1.696720
O	      8.54184      4.11451      6.25935        -0.043492     -0.656831     -2.223876
O	      2.21640      4.03118      4.33185        -1.215213      0.471163      0.191626
O	      4.40309      6.20950      4.15473        -0.285221      1.494375      0.126184
O	      4.13016      4.22765      6.35103        -0.069650      0.064976     -0.150423
O	      6.42396      6.37860      6.27515         0.117616      1.081367      0.255779
O	      6.37066      4.30913      8.33046         0.346343      0.626495      1.679216
O	      8.37821      6.27252      8.43191        -0.407205     -0.150343      1.833419
O	      2.17889      6.24681      6.20075         0.266598      0.291178     -1.205930
O	      4.36961      8.36519      6.38761        -1.299833      0.374532     -0.687894
O	      4.46924      6.41484      8.42817         0.313614      0.479189      1.913260
O	      6.33104      8.41835      8.29569        -0.832422     -0.712268     -0.157995
O	      6.43589      6.51927     10.33418        -0.305409     -1.452886     -0.339944
O	      8.34938      8.39678     10.40436         1.446550      0.390281      1.313979
