# total energy = -164.04027750 eV
 
CRYSTAL
PRIMVEC
0.038601 6.257337 6.291891 
6.279231 0.046647 6.283997 
4.184997 4.165153 0.032227 
PRIMCOORD
27 1
Ti	      2.12961      4.03935      2.00566         1.114744     -0.382627     -0.625490
Ti	      4.27374      4.33778      4.18065         0.807267      1.799337     -0.896691
Fe	      6.29795      2.08132      4.30016         0.415979      0.557153      0.447984
Fe	      4.16767      8.29548      4.30511        -0.077873     -1.187669      0.510278
Fe	      2.07205      4.31177      6.33419        -0.961823     -0.161705     -0.301615
Fe	      6.25580      6.30451      8.35006        -0.150188     -0.288383      0.011161
Co	      4.20369      2.12380      6.28605         0.807738     -0.797793     -0.084607
Ni	      8.32697      4.22021      4.22472        -0.921365      0.292730      0.421064
Ni	      4.23046      4.19137      8.36919         0.466432     -0.028059     -0.185503
O	      2.09567      2.22305      2.03500         0.200354      0.303511      0.233349
O	      4.06350      4.16927      2.27278        -1.207485     -0.145521      0.608978
O	      4.24440      2.14845      4.32450         1.056324     -0.090986      1.051496
O	      6.18697      4.14689      4.18913         0.072155     -1.706986      0.275960
O	      6.16428      2.11598      6.21757        -1.670377      0.027850     -1.068797
O	      8.36080      4.34338      6.38428        -0.053137      1.557694     -0.195129
O	      2.14329      4.19078      4.14675        -0.328759     -0.114409      0.190156
O	      4.22666      6.19249      4.23902        -0.030326     -0.320127     -0.059902
O	      4.15265      4.08335      6.21016        -1.262285     -0.802453      0.467505
O	      6.43499      6.35233      6.36841         0.800257      1.155052      1.090307
O	      6.37529      4.23481      8.50355        -0.334597      1.319898      0.894469
O	      8.35121      6.27460      8.26359        -1.390672      0.261167     -0.857052
O	      2.12137      6.17999      6.32848        -0.132918     -0.892058     -0.164780
O	      4.28616      8.32276      6.21099         1.729845      0.290433     -0.545343
O	      4.28798      6.23182      8.42477         1.340950     -0.587020      0.446520
O	      6.33742      8.31126      8.44235         0.515097     -1.175008      0.293341
O	      6.27621      6.28174     10.42210        -0.568445      0.319785     -1.284955
O	      8.40497      8.39880     10.49152        -0.236892      0.796193     -0.672703
