# total energy = -91.86453327 eV
 
CRYSTAL
PRIMVEC
4.106436 -0.000030 -0.000541 
-2.052626 4.032794 -6.226229 
-2.053323 4.081866 2.107711 
PRIMCOORD
16 1
Li	      2.05316      2.03042     -0.06811         0.001798     -0.014371     -0.022309
Li	      0.00024      2.02933     -2.11602         0.001779     -0.007048      0.019787
Li	     -2.05270      4.11552     -2.07773         0.000679      0.022291     -0.014726
Li	     -2.05205      6.08625     -4.07064        -0.001079      0.005640     -0.020020
Mn	      0.00042      0.03505      0.01718        -0.001210      0.004788      0.079941
Mn	      0.00021      4.00461     -0.04589         0.003726     -0.057036     -0.056392
Ni	      0.00066      6.08480     -2.01487         0.002066      0.026835      0.002906
Ni	      0.00069      4.08568     -4.06078        -0.001427      0.102739     -0.061641
O	     -2.05248      6.18372     -2.02718        -0.000041     -0.155799      0.006535
O	      2.05354      4.00555      0.16442         0.000149      0.020239      0.017044
O	      0.00066      6.18771     -3.97090        -0.001129      0.045348     -0.112084
O	      0.00043      4.10993      2.00392        -0.004327     -0.036555     -0.133284
O	     -2.05256      4.07321     -4.26569        -0.001426      0.089631      0.040635
O	      2.05383      1.81911     -2.19388        -0.001729     -0.031422      0.147380
O	      0.00030      4.04346     -1.96784         0.001858     -0.107736      0.110377
O	      0.00046      2.01153      0.00348         0.000313      0.092453     -0.004149
