# total energy = -165.86072258 eV
 
CRYSTAL
PRIMVEC
0.019075 6.074478 6.312625 
6.468063 -0.011356 6.341776 
4.320932 4.077611 -0.015838 
PRIMCOORD
27 1
Ti	      6.44334      8.21283     10.35950        -0.810992     -0.333781     -1.067827
Ti	      2.23407      4.03763      6.17326         0.330032     -0.246005     -0.120828
Mn	      2.16018      8.08220      6.30994         0.242912     -0.807031      0.610066
Mn	      6.48464      2.04987      8.46346         0.636289     -0.836708      0.546189
Fe	      4.32410     10.09549      6.26716         0.605889     -0.226165      0.674301
Fe	      8.58032      6.06749      6.25154        -0.801590      0.374261     -0.389917
Cu	      2.17102      4.10697      2.19373         0.470473     -0.312725      0.334806
Cu	      6.46362      4.07254     10.48918         0.485381     -0.209864      0.213015
Cu	      4.34403      4.12199      8.41948        -0.395787      0.796838     -0.315350
O	      4.33991      5.98409      8.44542        -0.003888     -0.829467      0.139700
O	      1.99387      2.00325      1.96615        -0.785441      1.153348     -0.838497
O	      4.14390      4.22386      2.04265        -0.905442      0.587303     -0.573811
O	      4.49563      1.99816      4.32420         1.315243      0.060203      0.660552
O	      6.44634      3.96178      4.22251         0.039470     -0.377017     -0.190424
O	      6.37568      1.99456      6.41238         0.466922     -0.412042     -0.048122
O	      8.71052      4.01640      6.31940         0.567980     -0.403335      0.922236
O	      2.27003      4.06257      4.36512        -0.634541     -0.044747     -0.313191
O	      4.35050      6.20729      3.97247        -0.125532      1.396326     -0.775362
O	      4.17720      4.03996      6.32636        -0.685768     -0.691269      0.995077
O	      6.59712      6.17436      6.32747         0.863121      0.841377      0.101948
O	      6.64972      4.00469      8.46522        -0.020186     -0.262670      1.430571
O	      8.85457      6.23878      8.34771         0.294204     -0.317690     -0.621876
O	      2.06307      6.05317      6.37694        -0.907661      0.744433      0.028321
O	      4.45217      8.10766      6.30178        -0.833904      0.611484     -1.420396
O	      6.45532      8.08579      8.49108         1.075510      0.257485     -0.120199
O	      6.50092      6.05854     10.64850        -0.269689     -0.739305      0.452658
O	      8.43746      8.06578     10.73978        -0.213002      0.226763     -0.313641
