# total energy = -190.37314770 eV
 
CRYSTAL
PRIMVEC
0.016611 6.318814 6.341794 
6.414688 -0.016265 6.375324 
4.269745 4.228018 -0.004317 
PRIMCOORD
27 1
Sc	      4.23567      4.11867      0.13696        -0.726387      0.166378      0.927359
Sc	      6.37814      2.11461      4.34706        -0.548526     -0.435651     -0.834641
Sc	      2.20097      6.31643      4.17775        -0.363567     -0.561540     -0.180201
Mn	      4.36479      4.17879      8.34546        -1.631199     -1.016177     -0.411595
V	      2.17924      6.33062      8.42903        -0.523115      0.972042     -1.212048
V	      8.57399      4.19155      4.32459         1.167074      0.182336      2.894607
V	      2.10843      2.18575      4.26690        -0.209051      2.265243      1.351472
V	      4.26613      4.21836      4.27558        -1.194697     -0.135902      0.665086
Ni	      4.28558      6.40683      6.35311         0.532539      0.947084      0.350287
O	      2.14073      2.01646      2.34961         0.112379     -2.728079      1.202174
O	      4.43997      4.15603      2.20985         1.540063      0.064662      1.872962
O	      4.21393      2.02803      4.22837        -0.476874      0.558225      0.133235
O	      6.40379      4.27689      4.20746         0.264316      0.191402     -0.926433
O	      6.39840      2.02592      6.33041         0.039956     -0.319235      0.447461
O	      8.56584      4.19403      6.27311         0.702089     -0.206933     -4.167780
O	      2.26940      4.16558      4.12946         1.733958     -1.274025      0.217531
O	      4.33484      6.31005      4.24281         0.862079     -1.705888      0.324411
O	      4.29085      4.30798      6.21159         0.253657      0.298313     -0.867637
O	      6.38137      6.35821      6.07258        -0.668311     -0.069822     -2.898661
O	      6.25445      4.23131      8.45284        -0.236203     -0.365195     -0.122633
O	      8.53036      6.41143      8.52431         0.534954      2.338195     -0.109802
O	      2.14893      6.33413      6.32876        -0.230872      0.093982      1.389463
O	      4.28906      8.42223      6.38845        -0.003500     -1.214896     -0.057384
O	      4.23668      6.26631      8.54945        -0.710909     -1.336193      0.588772
O	      6.61566      8.52187      8.48994         1.043776      2.236208      0.698062
O	      6.44093      6.33809     10.65872        -1.012395      0.718263      0.522822
O	      8.51434      8.47912     10.61822        -0.251234      0.337201     -1.796889
