# total energy = -200.41365700 eV
 
CRYSTAL
PRIMVEC
-0.007274 6.446857 6.262625 
6.421268 -0.017507 6.273085 
4.271063 4.294827 -0.001878 
PRIMCOORD
27 1
Sc	      6.42122      4.30743      6.20479         0.874515     -0.183704      0.956111
Sc	      8.47427      6.40984     10.26772         1.298474     -1.456923     -1.043309
Ti	      8.54236      2.15058      6.27298        -1.275883      1.153602      0.088013
Ti	      4.29604      2.20440      2.30899        -0.103232     -0.531251      2.369684
Ti	      4.22389      6.48784      6.21942         0.516861      0.138214     -2.010285
Ti	      6.40862      8.51075      6.22015        -0.223118     -0.672037     -1.678637
Mn	      6.37342      0.02550      6.25066        -0.004420     -0.151902      0.076554
Fe	      8.56581      6.40584      6.25986        -0.028984     -0.540184     -0.414392
Fe	      4.34029      4.34238      8.45192        -0.133626      1.158938      1.656713
O	      2.31858      2.10476      1.96250         1.428728      0.116136     -1.327816
O	      4.27366      4.06447      2.10010        -0.192586     -0.369097     -1.969792
O	      4.29822      2.11359      4.16658         0.177318      0.124604      1.289849
O	      6.39770      4.29289      4.23914        -0.238842      0.030145     -1.272813
O	      6.58869      2.16680      6.33062        -0.380547     -0.293356     -0.209830
O	      8.51524      4.13539      6.27909         0.486336      0.377217     -0.122505
O	      2.09571      4.34451      4.34332        -0.132691      0.857201      2.264797
O	      4.22358      6.45243      4.32510        -0.544656     -0.124443      2.420495
O	      4.17717      4.37725      6.28665         0.041569     -0.405927      1.086640
O	      6.33611      6.51321      6.23088         0.285071      0.324595      0.147903
O	      6.32905      4.28954      8.31482        -1.608214      0.209613     -0.333183
O	      8.57703      6.40985      8.25030        -0.036553      1.971731     -1.767304
O	      2.20155      6.43796      6.23714        -0.081497      0.183613     -0.266730
O	      4.30024      8.52110      6.32577         0.133452     -0.183480      0.321927
O	      4.26937      6.56443      8.23322         0.090374     -1.061866     -1.044363
O	      6.32090      8.61129      8.22490         0.190441      0.064480     -1.100197
O	      6.47925      6.45187     10.44228        -0.434359      0.049213      2.222735
O	      8.59302      8.52232     10.60488        -0.103930     -0.785131     -0.340267
