# total energy = -102.09223493 eV
 
CRYSTAL
PRIMVEC
3.900928 -0.000416 0.000318 
-0.001479 4.971486 -4.227936 
-0.000817 7.239756 1.905234 
PRIMCOORD
16 1
Li	      3.90068      0.45928     -0.26027        -0.000877     -0.019466     -0.018203
Li	      1.94963      2.37406      0.03439         0.001178     -0.019231      0.009178
Li	     -0.00064      4.31918     -0.04654        -0.000313      0.018394     -0.000403
Li	      1.94832      7.30523     -0.20823         0.003330     -0.015605      0.025621
Ti	      1.95064      4.97820     -1.99021         0.000555      0.251866      0.055874
Ti	      1.94670     10.20121     -2.35030         0.004555      0.480687     -0.038437
Ni	      3.89895      9.60796     -0.11345         0.001549      0.077998      0.035738
Ni	     -0.00109      7.41856     -2.20220        -0.004197      0.003038     -0.061424
O	      3.90011      2.38945     -0.00214         0.002360      0.023151      0.017518
O	      1.95042      4.84661     -0.05446        -0.006575      0.012627      0.010743
O	     -0.00087      4.80508     -2.05698        -0.002309      0.009977      0.018926
O	      1.94914      6.83054     -2.20015         0.000737     -0.322765      0.037911
O	      3.89948      7.64855     -0.25654        -0.000178     -0.120667      0.145953
O	      1.94957      2.83138     -2.31878        -0.001705      0.062182     -0.160305
O	      3.89857      9.66181     -2.30496         0.003625      0.086835     -0.089536
O	      1.94786     11.99898     -2.26515        -0.001734     -0.529019      0.010846
