# total energy = -193.85279287 eV
 
CRYSTAL
PRIMVEC
0.004930 6.253896 6.394645 
6.336826 0.020600 6.378722 
4.237278 4.171449 0.001148 
PRIMCOORD
27 1
Sc	      2.20438      4.12610      6.35647         1.012318      0.311801     -0.364620
Mn	     10.56477      8.34717     10.63606        -0.538484     -0.297858     -0.869578
V	      6.33187      4.17575      2.20904         0.402483     -0.906441      2.494075
V	      8.40154      4.33283      8.49627        -0.648087      4.016774     -1.036154
V	      8.51062      8.27627      8.52845         0.556131     -0.622636     -1.935431
Cr	      6.30353      0.06297      6.33430        -0.539897      1.964393     -1.786557
Cr	      8.40673      2.12539      6.31858        -1.556226      0.234584     -1.057118
Cr	      4.25874      8.28643      8.58512         0.839248     -0.827834      1.488678
Cr	      6.34798      6.23739      4.29237        -0.066949     -1.233029      2.324870
O	      2.20909      2.15274      2.09028         0.600464     -0.225002      0.115989
O	      4.21462      4.09739      2.05334        -0.165466     -1.037086     -0.964195
O	      4.12954      2.08773      4.14462        -1.658831     -0.000849     -1.604809
O	      6.27529      4.26490      4.13946         0.019659      1.266838     -3.058664
O	      6.45322      2.03125      6.33441         1.250750     -1.520604      0.050521
O	      8.53904      4.12120      6.43417         1.057130     -0.819396      2.047085
O	      2.07708      4.15341      4.23723        -1.485925     -1.139221     -0.835879
O	      4.33591      6.39350      4.26420         1.627959      1.119019     -0.224029
O	      4.20250      4.18439      6.53887        -0.424853     -0.217365      3.718528
O	      6.36304      6.30142      6.26161         0.085524     -0.128826     -2.192182
O	      6.40274      4.21312      8.50325         0.156485     -0.178964      1.987413
O	      8.48558      6.28964      8.53386         0.033272     -1.848921      0.070947
O	      2.02043      6.31250      6.49205        -0.979389      0.229706      1.589846
O	      4.18989      8.39139      6.49899        -0.037911      0.645206     -0.694077
O	      4.09157      6.22756      8.52055        -1.724636     -0.135672      0.101330
O	      6.31246      8.33960      8.50782         0.685980      2.072352     -0.608896
O	      6.33763      6.11429     10.75959        -0.098297     -0.803211      1.893821
O	      8.55347      8.32873     10.64756         1.597550      0.082240     -0.650914
