# total energy = -185.99266303 eV
 
CRYSTAL
PRIMVEC
-0.019361 6.384731 6.334695 
6.185376 0.000050 6.315641 
4.126782 4.247303 -0.003575 
PRIMCOORD
27 1
Ti	      4.20117      4.12878      4.32331         0.081422     -0.881808      1.331369
Mn	      8.18716      8.56706     12.53567         0.085228      0.914682     -0.813923
Mn	      0.01950      2.17393      2.15081        -0.033863      0.895330      0.317501
Mn	      4.20561      6.41072      6.36555         1.513132     -0.053141      0.604803
Cr	      6.20423     10.53914      8.41445         1.673406     -2.198523      1.762240
Cr	      2.04162      4.23425      2.11430        -1.931700     -0.256419      0.925403
Cr	      8.20162      6.36992      6.31758        -2.065570      1.063540     -1.257505
Cr	      8.17722      6.37146     10.56044        -1.233274      0.087777     -0.856814
Co	      6.14018      6.35913     12.54937        -0.545499     -0.740247     -0.640134
O	      1.99120      2.16557      1.94502        -0.979133     -0.291540     -0.777537
O	      4.12987      4.38962      2.15528         0.324431      0.571943     -0.601403
O	      4.08345      2.24107      4.31360         0.337073      0.741998      1.290816
O	      6.08157      4.30786      4.05552        -0.385343     -0.388084     -1.812662
O	      6.16745      1.97348      6.30233        -0.066945     -0.748619      1.312892
O	      8.21231      4.36428      6.41405         1.267785     -0.358341      1.097202
O	      2.18532      4.32728      4.09994         0.521067      1.271796     -1.322603
O	      4.06990      6.26495      4.35084        -1.049418     -0.249905     -0.590122
O	      4.17999      4.15188      6.20665         0.077779     -0.157672     -0.771397
O	      6.18617      6.40397      6.37791         0.604325     -0.035958      0.030971
O	      6.26524      4.04801      8.47311         1.617942     -0.574947     -0.087933
O	      8.32763      6.28760      8.45461         0.952128     -0.852829      0.144765
O	      2.11555      6.31989      6.30285        -0.009026      1.133293      0.120697
O	      3.94372      8.63691      6.30809        -0.783795      0.211793     -0.089662
O	      4.03910      6.38519      8.31737        -1.671270      0.199101     -1.248906
O	      6.15309      8.63819      8.42521        -0.117188      2.261254     -0.033253
O	      6.23952      6.34949     10.54093         1.837736     -0.072232      1.160488
O	      8.20853      8.37653     10.63936        -0.021431     -1.492242      0.804707
