# total energy = -204.92760026 eV
 
CRYSTAL
PRIMVEC
0.004388 6.320394 6.219248 
6.319829 -0.004225 6.228078 
4.211152 4.217277 -0.000858 
PRIMCOORD
27 1
Ti	      6.31894      6.22773     12.33769         0.091703      1.275275     -0.668976
Ti	      8.55166      8.50826     12.31070         0.345573     -1.575212     -1.014827
Ti	      4.25407      6.27773      2.20210         0.985265     -0.970145      1.692733
Ti	      2.01364      4.27638      6.10122         1.127809     -1.328175     -3.345880
Ti	      6.27218      6.30764      8.43731        -0.868038      0.508257      2.300245
Mn	      6.28937      4.26065      6.06267        -0.629592      0.616416     -0.765087
Cr	      4.21512      2.10174      6.16274        -0.475887      0.424390     -1.845218
Cr	      8.40935      8.42116      8.39992        -0.045678      0.742366      1.762132
Co	      6.34704      4.24732      2.14319        -0.157925      0.415230      2.273334
O	      1.98481      2.16686      1.90995        -1.281727     -1.248781     -1.374642
O	      4.19363      4.32418      1.94023         1.239003      1.261201     -1.545551
O	      4.19383      2.12519      4.24372        -0.139307      0.157846      1.966813
O	      6.30561      4.23572      4.06624        -0.003352      0.124696     -0.829300
O	      6.29651      2.04723      6.25351        -0.104830      0.144550     -0.015140
O	      8.48811      4.24675      6.20481         0.541896     -0.983935     -0.240553
O	      2.09344      4.22427      4.29445         0.128856     -0.098216      2.463829
O	      4.22246      6.30870      4.00398         0.092006     -0.123389     -0.067494
O	      4.11238      4.13379      6.36113         0.389233     -1.196261      0.686537
O	      6.40610      6.41527      6.35688         1.128284     -0.608977      0.537174
O	      6.23895      4.20107      8.30426        -0.891102      0.481911     -1.752357
O	      8.43481      6.36030      8.27246        -0.187766      1.205453     -1.260939
O	      2.09067      6.34618      6.25394        -1.788328     -0.439268      0.954023
O	      4.20943      8.39295      6.24319        -0.633427      2.876333     -0.140888
O	      4.33051      6.20637      8.31329         0.456693     -1.566748      0.070884
O	      6.37795      8.34002      8.28409         1.108149     -0.343254     -0.489880
O	      6.37777      6.28369     10.37499        -0.258674      0.089965      0.260624
O	      8.45915      8.40255     10.43027        -0.168837      0.158472      0.388405
