# total energy = -175.22298013 eV
 
CRYSTAL
PRIMVEC
0.009614 6.316213 6.302762 
6.317081 0.015425 6.296738 
4.208328 4.203759 0.013606 
PRIMCOORD
27 1
Ti	      8.36944      2.19702      6.22195        -1.117230      0.464190     -1.071114
Ti	      2.29082      6.22735      8.44167         1.810234     -2.615223     -0.840979
Mn	      4.18070      4.21206      4.27613        -0.019490      0.039812      0.876293
Fe	      6.30706      6.34778     12.52755        -0.096652      0.833590     -0.302221
Fe	      4.19764      2.08063      2.17255         1.170567     -0.572694     -0.325212
Fe	     10.37389      6.38815      8.40494        -0.472778      0.865355     -0.983805
Fe	      0.08398      4.20802      4.18341        -0.403842      0.201628      0.145620
Fe	      6.40755      6.34891      8.29585         0.375109      0.006224      0.292474
Co	      6.32973      6.32931      4.29304         0.202842     -0.192488      0.920606
O	      2.02835      1.98043      1.98113         1.023400     -0.353685      1.170148
O	      4.27001      4.28834      2.17567         0.419753     -0.907791      0.395183
O	      4.12308      2.17226      4.17745        -1.516052      1.702381     -0.881259
O	      6.33421      4.29404      4.05930        -1.847675      1.573805      0.267405
O	      6.39695      2.06156      6.33772         0.522921     -1.204034      1.086374
O	      8.51082      4.09054      6.33937         1.186657     -0.598235     -0.221939
O	      2.02906      4.11935      4.23740         1.171379     -1.717028      0.092679
O	      4.28613      6.34507      4.14085         1.212368     -0.748322     -0.366085
O	      4.22688      4.22814      6.11402         0.011739      0.035584     -0.921553
O	      6.31134      6.31088      6.44663        -0.014180     -0.082566     -0.797871
O	      6.30105      4.21186      8.48161         0.078050      0.155895      0.694034
O	      8.43861      6.33251      8.41352        -0.777329      0.048825      0.095238
O	      2.00792      6.39649      6.43769        -1.281462      0.646358      0.411238
O	      4.11537      8.49553      6.34329        -0.367468      1.041688      0.542879
O	      4.18537      6.27795      8.39325        -0.384752      2.038960      0.120478
O	      6.35059      8.48955      8.43524        -1.981382      0.091258      0.048671
O	      6.33893      6.25642     10.52265         0.043763     -0.934830     -0.724947
O	      8.52105      8.37572     10.67220         1.051511      0.181344      0.277664
