# total energy = -193.58465620 eV
 
CRYSTAL
PRIMVEC
-0.006811 6.403130 6.300914 
6.266826 0.034755 6.260365 
4.215231 4.277910 -0.013344 
PRIMCOORD
27 1
Ti	      0.18421      6.42014      6.33622         0.906940     -0.583238      0.164155
Ti	      6.39978      8.72597     10.37394         0.730436     -2.006511     -0.923387
Ti	      4.02369      2.17546      2.11265         0.024803      1.257115     -0.326692
Ti	      0.14295      4.25420      4.08207        -0.691331     -0.735918     -0.709857
Ti	      4.33044      6.21805      6.29925        -0.457945     -0.597503     -1.122972
V	      8.36585      6.44130      6.31391        -0.432846      0.685313      4.080463
Fe	      8.35724     10.64214     10.40956         1.147349     -0.185901     -0.001529
Cu	      2.03453      0.11039      2.05738        -0.380703      0.125518     -0.055504
Cu	      6.32608      4.32331      6.45925        -0.065301     -0.060939      0.827185
O	      2.19735      2.19407      2.13069         0.341288     -1.472334     -0.068171
O	      4.13672      4.13109      1.97674         1.539234     -0.425282     -1.135547
O	      4.26531      2.16872      4.11370         0.503216     -1.643140      0.689660
O	      6.23214      4.17086      4.24382         1.639831     -0.138858     -0.184609
O	      6.26938      1.97383      6.16759        -2.015567      0.978423     -0.525101
O	      8.52872      4.44235      6.15760        -1.304567      1.687692     -0.739962
O	      1.95510      4.27981      4.18360        -0.370666     -0.335105     -0.258785
O	      4.18208      6.56260      4.37680         0.416378      1.120867      0.980653
O	      4.08627      4.35086      6.26404         1.767177     -0.456916      0.211402
O	      6.20484      6.47483      6.25714         0.723110     -1.562057     -0.043464
O	      6.23835      4.27340      8.52888         0.453395      0.032819     -0.522018
O	      8.40191      6.43906      8.19420        -0.082055      0.020291     -4.413835
O	      2.06911      6.40438      6.24090        -0.107037     -0.045456      1.527792
O	      4.18667      8.60294      6.36818         0.025676      0.118355      0.096686
O	      4.25214      6.54234      8.26060        -1.670111      0.631490      0.924859
O	      6.18275      8.45667      8.54360        -0.532909      1.486091      0.839399
O	      6.28643      6.32009     10.59239        -1.530659      0.005847      0.761663
O	      8.30713      8.54826     10.44868        -0.577134      2.099338     -0.072484
