# total energy = -157.51059071 eV
 
CRYSTAL
PRIMVEC
0.021741 6.214291 6.275577 
6.233956 -0.004289 6.301924 
4.140994 4.145283 0.012416 
PRIMCOORD
27 1
Cr	      4.20510      8.26542      8.37716        -0.031324     -0.870329     -0.207824
Cr	      4.15884      4.14186      8.34678         1.123216      0.409043      0.240217
Fe	      6.21496      0.03662      6.31279        -0.643469     -0.268441     -0.394335
Fe	      8.30720      4.10850      4.26313        -0.072972     -0.251834      0.400015
Fe	      4.20930      4.12193      4.28792         1.017228     -0.537285      0.282671
Co	      0.02702      2.07250      2.08216        -0.154782      0.329851     -1.338257
Co	      2.08778      2.07967      4.20443        -0.106419     -0.650175      0.971034
Co	      8.25805      6.23934     10.45861        -0.581588      0.481982     -0.087493
Cu	      6.21922      8.26314      6.28788         0.052024     -0.143632     -0.079161
O	      6.18072      6.28329      6.10855         0.063606      0.834182     -1.966078
O	      2.15934      2.07891      2.28917         0.348806      0.116128      1.466633
O	      4.19346      4.13124      2.13082        -0.056454     -0.213479     -0.194090
O	      4.25463      2.08894      4.12180        -1.053819     -0.288664     -1.007633
O	      6.22229      4.28070      4.27231         0.116187      1.632736      0.100324
O	      6.26388      1.99245      6.49964        -0.080029     -0.537683      1.791532
O	      8.38044      4.14088      6.21556         1.811310      0.075094     -1.033796
O	      2.16188      4.03918      4.23384         0.513767      0.028032      1.169914
O	      4.01648      6.13781      4.04357         0.015821     -0.475257     -1.096151
O	      4.08114      4.13946      6.27768        -1.370564     -0.000845      0.337079
O	      6.13046      4.00289      8.35924        -1.862944     -1.066546     -0.222926
O	      8.25365      6.29228      8.52456         1.251173      1.152837      0.889388
O	      2.04788      6.16849      6.07450        -1.266030     -0.958650     -0.464862
O	      4.21030      8.33892      6.39911         1.175723      1.027190      0.690470
O	      4.19871      6.22754      8.48133         0.076868      0.426289      1.204687
O	      6.24798      8.30343      8.26820        -0.224624     -0.079443     -1.123490
O	      6.27759      6.21963     10.56167         0.202224      0.018171      1.119995
O	      8.27624      8.38019     10.36690        -0.262933     -0.189273     -1.447863
