# total energy = -141.64669580 eV
 
CRYSTAL
PRIMVEC
0.004081 6.099663 6.318778 
6.308764 -0.041882 6.365815 
4.184118 4.076708 -0.006872 
PRIMCOORD
27 1
Mn	      6.32230      6.06830      8.40235        -0.026508      0.038264     -0.585643
Cr	      4.23137      0.05512      4.26022        -1.315490      3.016076     -0.705919
Cr	      4.21385      3.99604      8.40315        -0.291621     -0.677262     -1.123653
Cu	      6.27354      4.05324      6.27753        -0.270857      0.547451     -0.054666
Cu	      2.06788      4.07862      6.29980         0.527776     -0.026538     -0.036636
Cu	      4.22426      4.10164      0.16662        -0.284062      0.534113      0.442455
Cu	      6.29823      2.00235      4.26188        -0.561647      0.342670     -0.465205
Cu	      4.23099      8.08716      4.21973         0.771127     -0.561222     -0.002636
Ni	      2.15778      8.08672      6.41219         0.189827     -0.279209      0.356895
O	      1.96874      6.07870      6.36657        -0.775503     -0.410948      0.192306
O	      4.22700      8.28049      6.46463         0.270742      0.486339     -0.743775
O	      2.08690      2.05817      2.03989        -0.023803     -0.070939     -0.124718
O	      4.16292      4.11891      2.12499        -0.015486      0.145886     -0.387461
O	      4.15166      1.84769      4.23094         1.097982     -2.104837      0.009220
O	      6.43656      3.97614      4.35093         0.936428     -0.994291      0.912939
O	      6.40742      1.94404      6.20403         0.605490     -0.149109     -0.539332
O	      8.56183      3.96905      6.15141         0.098413     -0.722861      0.008472
O	      1.93081      4.03066      4.33163        -0.766130     -0.061204      0.453120
O	      4.18211      6.23612      4.22322         0.045508      0.598402     -0.070562
O	      4.05920      4.07006      6.41472        -0.059826     -0.121157      1.691533
O	      6.23761      6.14346      6.52269        -0.107435      0.048752      0.391038
O	      6.21659      4.14480      8.20511        -0.601156      0.188889     -0.191253
O	      8.20469      6.10360      8.42586        -0.220552      1.620369      0.183165
O	      4.31732      5.99624      8.62534         0.714757     -1.222769      0.413910
O	      6.38196      8.00548      8.55828         0.664822     -0.424029      0.267330
O	      6.26527      5.99930     10.40014        -0.326744      0.067310      0.047291
O	      8.62442      8.16383     10.47474        -0.276053      0.191855     -0.338214
