# total energy = -140.49780924 eV
 
CRYSTAL
PRIMVEC
-0.001830 6.215058 6.149099 
6.283317 -0.016211 6.163757 
4.173073 4.137404 0.004683 
PRIMCOORD
27 1
Ti	      4.03533      4.15197      8.05573        -1.019737      0.870667     -0.918796
V	      0.24320      2.01086      2.06798         2.346425     -1.129076     -0.653484
Co	      6.24338      6.22306      8.14559        -0.250230      0.118937     -2.816311
Ni	      0.00330      6.20544      6.14409         0.737344      0.919961      0.413279
Ni	      8.32763      6.21993     10.28358         0.559467      0.155383      0.508201
Ni	      4.23315      8.28635      8.21769        -0.074290      0.018678      0.045563
Ni	      8.33023      4.17272      4.16605        -1.052623     -0.132765      0.495395
Ni	      8.37940      4.17987      8.19592         0.024166     -0.393013     -0.299580
Ni	      4.17880      8.26317      4.16028        -0.067648     -0.787232      0.322067
O	      2.00647      2.08685      2.08161        -0.589197      0.514232      0.197052
O	      4.18215      4.27326      2.11091        -0.829913      0.148389     -0.546558
O	      4.17961      1.99778      4.02322        -0.024084     -0.434075     -0.495569
O	      6.46991      4.12858      4.17081         0.477718      0.065700      0.072131
O	      6.24706      1.92448      6.41259        -0.313803     -0.865662      0.316871
O	      8.55584      4.10917      6.18650         0.847984     -0.034677      0.015357
O	      2.00354      4.33024      4.03595        -1.209735      0.491069     -0.334539
O	      4.14825      6.21513      3.94556        -1.122492      0.955342     -0.216724
O	      4.18235      4.11430      6.25265        -0.023647     -0.093035      0.397155
O	      6.27405      6.18800      6.34923        -0.042885     -0.013042      2.623937
O	      6.23331      3.91810      8.18565        -0.158360      0.429324      0.782924
O	      8.30788      6.24612      8.34121        -0.419443     -0.178064      0.537933
O	      1.91674      6.24813      5.98602        -0.733905     -0.063481     -0.453178
O	      4.17045      8.44466      6.20847        -0.160555      0.979470     -0.470571
O	      4.25335      6.12507      8.20912         1.077755      0.062978      0.878621
O	      6.33416      8.29564      8.20736         0.302532     -0.630783     -0.293437
O	      6.13801      6.16471     10.11061         0.439396     -0.917938      0.004062
O	      8.41835      8.18512     10.16916         1.279763     -0.057284     -0.111801
