# total energy = -184.71523552 eV
 
CRYSTAL
PRIMVEC
0.020159 6.411999 6.369235 
6.227484 0.017569 6.370792 
4.160933 4.285385 0.002813 
PRIMCOORD
27 1
Ti	      6.08616     10.55080      8.47057        -0.354254     -0.882823      2.069513
Ti	      4.22422      0.17300      4.26889        -1.349662      1.191148     -1.243098
Mn	      8.29333      2.16821      6.38725        -0.546493      0.007039      0.030204
Mn	      2.04665      2.15350      4.15101         1.811342      0.197544     -1.028451
Mn	      6.24631      4.23426     10.54572        -0.136044     -0.495854     -0.303386
Mn	      4.17888      6.33847      6.36127        -0.330389     -0.855417     -0.261453
Mn	      6.31038      6.49023      8.49558         0.891352      0.838347      0.164545
Fe	      6.23397      0.07498      6.38845        -0.270430      1.013986      0.705242
Co	      6.19657      4.24331      6.54830        -1.012545     -0.797604      0.043525
O	      2.11878      1.92666      1.95616         0.058194     -0.627994     -0.032148
O	      4.22446      4.21108      2.11293         1.108782     -0.206356     -2.020299
O	      4.02154      2.06883      4.27432        -1.171688     -1.120428      0.194042
O	      6.34840      4.42141      4.09880         0.642275      0.965324      0.077026
O	      6.33881      2.11066      6.35734         1.296112     -0.558872      0.104824
O	      8.26314      4.34556      6.23345         0.714636     -1.651038      0.189359
O	      1.97133      4.08664      4.20901        -1.261967     -0.775266     -0.022524
O	      4.27097      6.35733      4.18593         0.445277      1.919586      1.737205
O	      4.22181      4.42532      6.35101         1.283448      1.231518      0.155580
O	      6.12375      6.43167      6.47830        -0.883840     -1.170565      0.116068
O	      6.23664      4.30894      8.60608         0.264553      1.713251      0.024182
O	      8.16838      6.47250      8.49090        -1.183804      0.006288     -0.059168
O	      2.19320      6.31192      6.46985        -0.586593      1.758036      0.214852
O	      4.09457      8.47829      6.23293        -0.742969      0.260203     -0.978834
O	      4.28597      6.45176      8.66780         0.413840     -0.034931     -1.034760
O	      6.26244      8.71476      8.57111        -0.147573     -0.480667     -0.242775
O	      6.18942      6.52714     10.59206        -0.073856     -1.825279      0.498105
O	      8.42445      8.73111     10.75713         1.122296      0.380825      0.902623
