# total energy = -147.00739971 eV
 
CRYSTAL
PRIMVEC
0.029192 6.455096 6.393959 
5.961310 0.056369 6.368052 
4.025894 4.337557 -0.014001 
PRIMCOORD
27 1
Mn	      5.98690      2.19512      4.26629        -0.014724     -1.044569     -0.102089
Mn	      3.96910      4.32766      4.24454         0.669339     -0.377953      0.125411
V	      2.14871      6.46247      8.40694         1.387550     -0.893864     -0.765184
Fe	      7.99674      6.61240     10.32262        -0.306177      0.509293      0.551352
Cu	      6.01237      6.48305      4.30985         0.006556     -0.321451      0.034293
Cu	      5.98419      4.38776      6.42479        -0.674121      0.000731      0.295988
Cu	      5.97151      8.52262      6.41005        -0.184257     -0.187033      0.671619
Cu	      8.08900      8.77958     12.72574         0.752769     -0.188059     -0.529820
Cu	      7.99321      4.45973      8.41658         0.221830      0.626614     -0.203792
O	      4.04599      8.62932      6.35929        -0.144037     -0.064808      0.150479
O	      3.88345      6.43969      8.56009        -1.160753      0.035143      0.037883
O	      1.97298      1.79935      2.36040         0.039145      0.498777      0.512611
O	      4.03630      4.29906      2.31052        -1.029984     -0.022422      0.653320
O	      4.02026      2.35657      4.27898        -0.800317      1.143491      0.045663
O	      5.92363      4.16095      4.27724        -0.805681      0.180715      0.282480
O	      6.09963      2.30041      6.22813         0.794528      0.757844     -0.552644
O	      7.95269      4.34504      6.45079        -0.406525     -0.794939      1.305468
O	      2.06454      4.46927      4.10957         0.152248      0.219945     -0.464652
O	      4.00872      6.27146      4.27450         0.323880     -0.688722     -0.104505
O	      3.92883      4.32893      6.19130        -0.257078     -0.023752     -0.809372
O	      6.00384      6.50563      6.26239        -0.099248      0.254419     -1.334796
O	      6.06376      4.37727      8.37031         1.269186      0.077284     -0.791552
O	      7.99989      6.67843      8.47812         0.059562     -0.730815      0.098903
O	      1.96905      6.37769      6.64413        -0.095071     -0.037486     -0.045973
O	      6.00472      8.88777      8.72688         0.065639      0.767793      0.089062
O	      6.03269      6.73986     10.64700         1.016729      1.040066     -0.056127
O	      7.95601      8.59294     10.60776        -0.780989     -0.736241      0.905974
