# total energy = -139.80385397 eV
 
CRYSTAL
PRIMVEC
-0.002746 6.215085 6.224880 
6.203179 0.033154 6.188826 
4.151856 4.135805 0.005784 
PRIMCOORD
27 1
Mn	      2.07720      2.09925      4.13793        -0.014482     -0.154591     -0.046231
Fe	      6.24650      6.23337     12.34617         0.266013      0.022432      0.248810
Fe	      8.30253      8.29373     12.30135        -0.133756     -0.042046      0.714488
Fe	     10.25117      6.20960      8.32233        -0.014796     -0.409838      0.692278
Co	      6.18031      4.17909      6.17856        -0.423832      0.187244     -0.745954
Ni	      4.18401      8.29181      8.32756         0.232359      0.200037      0.324623
Ni	      4.12611      2.11851      6.17825        -0.022500      0.295746     -0.330056
Ni	      0.01341      4.14919      4.14323        -0.026136     -0.338977      0.104569
Ni	      6.21337      6.26804      8.33576         0.241826      0.294322      0.059467
O	      2.03595      2.04435      2.17494        -0.063817      0.024181      0.036783
O	      4.12548      4.19134      1.94766        -0.103223      0.000852     -1.002060
O	      3.97848      2.11468      4.13076        -0.942511     -0.192962      0.114956
O	      6.21246      4.26489      4.30985        -0.043386      0.505375      1.335365
O	      6.23144      2.17023      6.24051         0.012590     -0.094772      0.829805
O	      8.18811      4.13017      6.20673        -0.161503     -0.077376     -0.291624
O	      2.02085      3.98307      4.18816        -1.066655     -0.397525     -0.017896
O	      4.25734      6.23495      4.06790         0.606676      1.201401     -0.640611
O	      4.34633      4.11288      6.20257         1.332335     -0.524279     -0.214569
O	      6.23556      6.07925      6.12759         0.623739     -0.547285      0.066475
O	      6.21167      4.14969      8.12725        -0.114419     -0.162005     -0.209527
O	      8.30742      6.23050      8.23347        -0.041675     -0.004872     -0.939489
O	      1.99845      6.30750      6.23381        -0.715690      0.744080     -0.337043
O	      4.07344      8.36079      6.27290        -0.635921      0.558941      0.068868
O	      4.24783      6.33227      8.28664         0.585424      0.585815      0.189045
O	      6.16944      8.23247      8.28020        -0.668056     -0.495178      0.049342
O	      6.21274      6.21414     10.42235         0.053719     -1.228034     -0.096922
O	      8.33938      8.30856     10.42180         1.237676      0.049316      0.037109
