# total energy = -149.58508819 eV
 
CRYSTAL
PRIMVEC
-0.125217 6.105573 6.042604 
6.651807 -0.085871 6.010436 
4.412184 4.026626 -0.035165 
PRIMCOORD
27 1
Ti	      8.65134      7.98996     11.87956        -0.687648      0.527110     -2.154406
V	      4.41865      1.80910      2.19533         0.146172     -1.303611      3.591606
Co	      4.27507     10.06077      5.99980        -0.527344      0.509619     -1.907659
Co	      6.50438      3.99233      2.15040         0.307441     -0.257741      2.284407
Co	      2.24359      4.15035      2.05116         0.617898      0.029620      0.226824
Cu	      6.50987      2.06171      8.02717         0.003650     -0.157678      0.294064
Cu	     -0.00018      4.08809      4.01884        -0.157620      0.264960      0.462440
Cu	      2.33460      4.00630      5.97906         0.369554     -0.521126     -0.435710
Cu	      8.74598      8.01051      8.00498        -0.325168      0.399580      0.539883
O	      8.82769      6.06956      7.96124         1.001163      0.113040     -0.123493
O	      6.54891      5.87018     10.14916         0.103373     -0.732366      1.923964
O	      2.49518      1.94026      1.87445        -0.767397      0.138081     -0.218173
O	      4.34365      3.87756      1.89061        -0.432169      0.803159     -0.643093
O	      4.40553      1.93451      3.90006        -0.089828      0.023709     -2.355935
O	      6.46539      4.00089      3.91118         0.067351      0.072102     -3.122761
O	      6.84777      1.82331      6.10576         0.083824     -0.678395      1.190477
O	      9.05232      3.83867      6.06292         0.838629     -0.303534      1.487381
O	      2.36062      4.07791      3.85733        -0.755055      0.208009     -0.560534
O	      4.38212      6.25701      3.88608        -0.013699      0.832871     -1.561549
O	      4.34596      4.07724      6.13196        -0.811542     -0.050840      1.463978
O	      6.60312      6.15194      5.97326         0.146874      0.951897     -0.011132
O	      6.99075      4.02260      8.11123        -0.099557     -0.984637      0.715442
O	      1.84464      6.04377      6.14824        -0.574168     -0.576973      1.112769
O	      4.09264      8.11784      5.93994         0.343750      0.649622     -0.834863
O	      4.12511      6.11126      8.05127        -0.625931     -0.952097     -0.246597
O	      6.08745      8.06978      7.99267         1.042910      1.176904     -0.873552
O	      8.57639      8.02749     10.02734         0.794538     -0.181285     -0.243777
