# total energy = -168.92583792 eV
 
CRYSTAL
PRIMVEC
0.001862 6.256061 6.194988 
6.292338 0.036068 6.160916 
4.201376 4.154634 0.017039 
PRIMCOORD
27 1
V	      2.00984      4.25899      6.11046        -2.462642      1.597109     -1.405060
V	      8.39774      8.37782      8.30564        -0.165368      0.774772      2.958511
V	      6.24769      6.30215      8.34665        -2.316898      1.338462      2.128131
Cr	      0.03222      2.06169      2.06874         1.877824     -0.606619      0.018209
Fe	      4.28588      2.03292      6.03527         0.352194     -0.113003     -1.141490
Co	      2.14495      0.09839      2.10618         0.635402      0.239935      0.706028
Co	      2.10944      4.14046      2.08103         0.905835     -0.921860     -1.222984
Co	      4.21285      4.17669      4.14240         0.442234     -0.587314      0.005498
Co	      4.17306      8.27523      4.18965        -0.493754     -0.080853      1.450355
O	      2.00976      2.19295      2.02638        -2.060182      0.404363     -0.055387
O	      4.05508      4.21743      2.20583         0.028218      0.877061      0.762779
O	      4.19240      2.21587      4.14121         0.150926      2.006653      0.922815
O	      6.14875      4.18356      4.04312        -1.389667      0.154375     -1.780896
O	      6.23230      2.09724      6.23776        -1.888237     -0.326014      1.277102
O	      8.39085      4.23899      6.32138         0.274989      0.472855      1.774860
O	      2.14589      4.17095      4.13566         0.124087     -0.036214      0.894449
O	      4.20215      6.12297      4.06987        -0.130211     -0.314785     -1.695560
O	      4.12209      4.13729      6.16517        -0.709644     -0.854168      0.574513
O	      6.37870      6.40145      6.35233         1.246785      0.604621      0.873321
O	      6.37134      4.19610      8.27663        -0.548846      0.282154      0.445246
O	      8.39197      6.24792      8.21806        -0.101429      0.115767     -0.755401
O	      2.11299      6.07139      6.28170        -0.052086     -2.182746      1.322154
O	      4.31606      8.29362      6.12482         2.579963      0.053550     -0.758975
O	      4.30737      6.19369      8.22305         1.341997     -1.149475     -0.060450
O	      6.33668      8.29274      8.18391         1.316106     -0.868737     -0.678972
O	      6.32496      6.26963     10.12423         0.158656     -0.714701     -2.892045
O	      8.46338      8.34522     10.22624         0.883748     -0.165189     -3.666750
