# total energy = -137.50867384 eV
 
CRYSTAL
PRIMVEC
0.005996 6.467809 6.047335 
6.055557 -0.007806 6.061764 
4.031861 4.316849 -0.000595 
PRIMCOORD
27 1
Mn	      2.08528      6.46880      4.04969        -0.443056     -0.048372      0.298524
Fe	      1.99309      0.00065      1.99813        -0.737144      0.940913     -0.734837
Fe	      4.01711      2.16045      2.02335        -0.185076     -0.147810     -1.282950
Fe	      7.99783      4.41255      7.96560         0.161510      0.358660      0.037834
Cu	      8.12334      4.29765      4.14238         0.343113     -0.371377      0.834532
Cu	      5.98453      6.48590      4.08547        -0.520019      0.083713      0.282082
Ni	      6.06891      2.12461      4.11465         0.000790      0.331046      0.819676
Ni	      6.06506      8.59800      6.03690        -0.229147      0.240405     -0.476606
Ni	      4.11941      4.23772      8.04726         1.029196     -0.330719     -0.295515
O	      3.90690      4.32656      6.13516        -0.506973     -0.035802      0.242287
O	      6.07753      6.71989      5.96034        -0.196158      0.464736     -0.932071
O	      2.06884      2.07320      2.06284         0.172241      0.005760      1.206488
O	      3.98333      4.10889      2.00722        -0.024558     -0.609819     -0.184472
O	      3.94681      2.22777      3.88166        -0.269259     -0.642041      0.427353
O	      6.16272      4.11125      4.01106         0.989099     -0.244974     -0.108890
O	      6.04979      2.12715      5.95947        -0.040657     -0.116280     -0.501706
O	      8.06678      4.30657      6.12196        -0.132262     -0.057914     -1.067494
O	      1.97424      4.55177      3.92206         0.091740      0.225887     -0.026703
O	      4.00697      6.44210      3.99958         0.306509     -0.208790     -0.019093
O	      6.14569      4.31744      8.00961        -0.342491     -0.024080     -0.188838
O	      8.10128      6.44240      8.18762         0.093059      0.226741      0.929021
O	      2.03156      6.26501      6.03799         0.205787     -0.939962     -0.092716
O	      4.14433      8.55041      6.24987         0.747684     -0.132526      0.368371
O	      4.00573      6.58633      8.18912        -0.274189     -0.368184      0.909505
O	      6.00448      8.71821      8.18320         0.413594      0.215783      0.047428
O	      6.08127      6.64138     10.12500        -0.052138      0.997156      0.193722
O	      8.11153      8.38859     10.04320        -0.601193      0.187850     -0.684932
