# total energy = -139.58650690 eV
 
CRYSTAL
PRIMVEC
0.011835 6.261890 6.269859 
6.186211 0.008042 6.273729 
4.111307 4.164336 0.018096 
PRIMCOORD
27 1
Mn	      4.19378      6.25074     10.47020        -0.027169      0.177223      0.884401
Fe	      4.14114      6.20918      2.13472         0.762159     -0.199901      0.337896
Fe	      8.23441      6.22669      6.28127        -0.386899     -0.387480     -0.528393
Fe	      6.11347      8.35714      6.26063        -0.488750     -0.154784     -1.276655
Cu	      2.04237      0.04951      2.08222        -0.417747      0.604195     -0.052372
Cu	      6.20553      4.19153      6.27308         0.194140      0.062871     -0.363351
Cu	      8.19994      6.27094     10.46546        -0.146388     -0.109924      0.548399
Cu	      4.13601      4.19973      8.35656         0.125149      0.135235      0.209707
Ni	      4.08727      2.13666      2.13964        -0.491583      0.517211      0.165510
O	      2.08004      6.21829      6.17485        -0.069351     -1.138115     -0.317247
O	      6.17912      8.47749      8.22453         0.488174      1.205043     -0.252193
O	      6.13002      6.25929     10.40791         0.074736      0.109758     -0.216877
O	      8.25182      8.41593     10.35109         0.022305      0.240465     -1.527569
O	      2.02201      2.03793      2.12045        -0.502730     -1.710752      0.046960
O	      4.19456      4.18658      2.13425         1.525158      0.350162     -0.097707
O	      4.16328      1.94872      4.23300         0.217671     -1.434874     -0.096370
O	      6.31582      4.16071      4.38148         1.194465     -0.089758      0.085293
O	      6.11036      2.15760      6.37266        -0.815485      0.959663      0.866152
O	      8.29403      4.19570      6.15336        -0.900856      0.957075     -0.646226
O	      2.04313      4.26170      4.34242        -0.063688      0.858009      1.054010
O	      4.00882      6.29592      4.06313        -1.055259     -0.082541     -1.085959
O	      3.97641      4.12648      6.33604         0.302546     -0.897281      1.182329
O	      6.23481      6.29109      6.29033         1.454788     -0.035125      0.015581
O	      6.16046      4.11041      8.16798        -1.225142     -0.569274     -0.440561
O	      8.30561      6.17632      8.33002         0.865369      0.928833      0.466789
O	      4.27088      8.30417      6.36906         0.509510      0.092257      0.657457
O	      4.03568      6.36222      8.53029        -1.145124     -0.388190      0.380998
