# total energy = -166.11563920 eV
 
CRYSTAL
PRIMVEC
0.042879 6.188789 6.223953 
6.453747 0.028005 6.239259 
4.311496 4.145217 0.009658 
PRIMCOORD
27 1
Mn	      6.46413      2.10525      8.30108        -0.357618      1.045998      0.617505
Cr	      6.54849      8.17910     10.41731         0.428620     -2.287222      0.655763
Cr	      6.46538      8.26897      6.20899        -1.271533     -0.654162     -2.073547
Fe	      2.24029      6.23429      8.29621         0.372805      0.182110      0.421487
Fe	      4.31113      8.23159      8.27788        -0.155420     -0.466011     -0.042338
Fe	      4.28233      4.21851      4.20349         0.715537      0.679261      0.184790
Fe	      8.51231      6.06310      6.25972        -0.200636     -0.094404     -0.032569
Fe	      4.43907      4.15315      8.31679         1.046906      0.915952      0.347947
Co	      8.71635      8.32220     12.42414         0.380905      1.246539     -0.874401
O	      2.29449      2.04286      2.09859        -0.869262     -0.694010     -1.134610
O	      4.38509      4.20099      2.14339         0.833330      0.009951      0.698334
O	      4.47370      2.13917      4.13365         0.305570      1.059734      0.210945
O	      6.34706      4.00841      4.11288        -0.925003     -0.623432     -0.982526
O	      6.42792      2.08683      6.22609        -0.305382     -0.139733     -0.065480
O	      8.59639      4.17167      6.24440         0.136880     -1.737740     -0.158962
O	      2.28407      4.15784      4.23673         0.894198      0.183029      1.809727
O	      4.36469      6.16823      4.02206        -0.308410     -1.190489     -1.248618
O	      4.20223      4.10970      6.25178        -1.093566     -0.938477     -0.124547
O	      6.56511      6.26759      6.21802         0.826374      1.747990      0.159312
O	      6.37220      4.03991      8.34467        -0.821633     -1.391925     -0.058202
O	      8.61910      6.30614      8.24244         1.837773      0.688499     -0.637141
O	      2.18569      6.18230      6.31730         0.070179     -0.366081      1.133244
O	      4.42040      8.27466      6.31268         0.585607     -0.056335      1.066665
O	      4.26723      6.20467      8.33226        -1.019149     -0.075278     -0.059419
O	      6.45522      8.31787      8.32939         0.077061      0.613654     -0.200680
O	      6.46745      6.38107     10.36897        -0.103719      2.261224     -0.014303
O	      8.44238      8.30937     10.31409        -1.080412      0.081357      0.401624
