# total energy = -140.36913030 eV
 
CRYSTAL
PRIMVEC
0.046705 6.206337 6.161229 
6.181093 0.026153 6.181774 
4.140680 4.171155 -0.002419 
PRIMCOORD
27 1
Mn	      0.07258      6.20589      6.16850        -0.905790      0.217045     -0.597269
Mn	      6.22589      4.15680     10.23714         0.375364      0.426641      0.485516
Co	      2.11186      2.04464      4.10164        -0.001260      0.353530      0.229006
Co	      8.23643      6.33668      6.21550         0.216124     -0.262277      0.170542
Co	      8.29161      6.19687     10.19152        -0.142050     -0.859650     -1.107290
Cu	      8.20402      2.17833      6.21836        -0.540600      1.039875     -0.019838
Ni	      6.21160      4.16763      2.09481        -0.453362     -0.131218      0.377999
Ni	      4.18092      6.18788      6.20558         0.598446      0.031754      0.057607
Ni	      8.26900      8.33870      8.25656         0.212068      0.235138      0.092000
O	      6.25581      8.47847      8.28971         0.700304      0.617423     -0.095655
O	      2.09521      1.92433      2.12976        -0.004508     -0.765325      0.188893
O	      4.29188      4.15217      1.88462         0.871835      0.391994     -0.278145
O	      3.94208      2.13297      4.20534        -0.949649     -0.231835      0.608618
O	      6.18492      4.39245      4.12053         0.270458      1.316044     -0.334175
O	      6.25011      1.95415      6.11622         0.098348     -1.090999      0.524197
O	      8.43157      4.36713      6.22389         0.678000      0.225634     -0.240128
O	      1.96050      4.03669      4.06290        -0.546586     -0.607025     -0.045526
O	      4.26025      6.35804      4.17475        -0.237454      0.377289      0.596982
O	      4.18738      4.03590      6.20070        -0.206929     -0.770855      0.766441
O	      6.22543      6.23561      6.04169         0.300575      0.191899     -1.593931
O	      6.16664      4.16849      8.37551        -0.993168     -0.172080      0.058973
O	      8.26721      6.27105      8.27401         0.230103      1.058888      0.716436
O	      2.04115      6.11726      5.98976         0.385570      0.935207     -0.094273
O	      4.06611      8.39836      6.06186        -0.730681     -0.102582     -0.304123
O	      4.03647      6.20440      8.16552        -0.728761     -1.129502     -0.539394
O	      6.24006      6.08616     10.35757         1.147566     -0.618217      0.454340
O	      8.42182      8.25668     10.32640         0.356036     -0.676795     -0.077803
