# total energy = -179.17781252 eV
 
CRYSTAL
PRIMVEC
-0.020662 6.361482 6.263702 
6.198106 0.034822 6.208000 
4.149550 4.221492 0.006102 
PRIMCOORD
27 1
Ti	      6.27417      2.19090      4.31931         0.036756      1.212753      1.630174
Ti	      6.12475      6.30216      8.29246        -0.340613     -0.843514     -0.614872
Mn	      2.08072      4.17646      2.09909        -0.653010      0.323776      0.368428
V	      2.10889      6.38410      8.32221         1.268569      1.106874      1.290242
V	      2.17763      4.23343      6.15938         4.264152     -1.131484     -2.176631
Co	      4.13661      2.11551      2.13365        -0.583862     -0.669194      1.525790
Co	     10.26898      6.40158      8.35917        -0.712987      0.513500      0.021699
Co	     10.30590      4.24556      6.19996        -0.569207      0.031989     -0.648729
Co	     10.25722      8.50224     10.40299        -0.845713     -0.837917      0.052287
O	      2.04113      2.15713      2.09269         0.451323     -0.934978     -0.104486
O	      4.26513      4.20984      2.13968        -0.050309      0.258556     -0.943438
O	      4.35406      2.11583      4.13224         0.459437      0.013558     -2.009270
O	      6.26953      4.12203      4.09822         0.167862     -1.778856     -2.853419
O	      6.21711      2.13406      6.19253         0.005890     -1.681028      0.020370
O	      8.29799      4.23237      6.39938         2.072479      0.132621      0.835485
O	      1.88860      4.22784      4.15104        -1.481698      0.072071      0.949247
O	      4.08564      6.58322      4.10473        -0.206132      1.696852     -1.005427
O	      3.93957      4.25827      6.12779        -3.659276     -0.161119     -0.051861
O	      6.16032      6.44698      6.34904         0.110365      2.158932      1.058682
O	      6.06266      4.37716      8.40260         1.136853     -0.396968      1.007979
O	      8.15451      6.21137      8.29383         0.342545     -1.413800     -0.153853
O	      2.02891      6.22697      6.32999        -1.389655     -1.024468      1.772167
O	      4.25436      8.51035      6.13768         0.121794      1.512266      0.095019
O	      4.14444      6.41382      8.28929        -0.537673      1.042258     -0.158676
O	      6.25344      8.42642      8.25104        -0.994764      0.780671     -0.227294
O	      6.17305      6.42674     10.27767         0.059606     -0.047386      0.325989
O	      8.23143      8.50066     10.44016         1.527270      0.064034     -0.005601
