# total energy = -171.93432809 eV
 
CRYSTAL
PRIMVEC
-0.024246 6.325079 6.355628 
6.298162 -0.028575 6.360274 
4.175305 4.195708 0.005242 
PRIMCOORD
27 1
Sc	      2.18796      4.14748      2.11826         0.380145      0.039466      0.529001
V	      4.15605      8.30284      4.28670        -0.094450     -3.008940     -0.438737
Cr	      8.32373      2.07908      6.38023        -0.788166      0.051555      1.331502
Cr	      2.05619      6.32022      4.27700         0.759871      0.104310      0.077457
Cr	      6.24113      6.29731      8.50796        -1.730276      0.767250     -0.406870
Co	      4.09160      4.26227      8.40540         0.485880      0.067579      0.336256
Co	      6.28133     -0.01340      6.35346        -0.076678      0.952277      1.395411
Co	      4.22952      2.11193      6.07495         0.105729      0.143495     -2.123934
Co	      6.29282      8.38525      6.43016         0.379016     -0.388198      0.774952
O	      6.24934      4.21417      4.23361        -0.057541      0.042918     -0.059717
O	      2.07079      2.15376      1.98106         0.075209     -0.122468     -1.833545
O	      4.18043      4.20772      1.93524        -0.074228     -0.212891     -2.404128
O	      4.16019      2.12576      4.32497        -0.015265      0.127404      2.964056
O	      6.28209      1.91194      6.33305        -0.089076     -1.481734      0.058329
O	      8.49937      4.16517      6.37486         0.810402      0.106028      0.385632
O	      1.99087      4.29859      4.27649        -1.417737      0.275444      0.940710
O	      4.09385      6.49380      4.32025        -0.384997      2.769560     -0.005159
O	      4.19617      4.12204      6.47217        -1.995961     -1.125567      1.013291
O	      6.37353      6.32148      6.52131         1.300699      1.924308      0.639854
O	      6.24990      4.25683      8.65114        -0.490179      0.730537      1.355475
O	      8.29939      6.30745      8.60762        -1.059961      0.861539     -0.279512
O	      1.91696      6.37928      6.26754        -0.786352     -0.675408     -0.425965
O	      4.08824      8.54820      6.25924         0.493194      0.857438     -0.968544
O	      4.27339      6.19800      8.46675         1.265491     -1.696280     -0.070644
O	      6.33907      8.30411      8.51510         1.416992     -0.462204     -2.380211
O	      6.34991      6.12646     10.64168         0.386609     -0.368189      0.023395
O	      8.45089      8.31703     10.66939         1.201629     -0.279229     -0.428357
