# total energy = -168.59036915 eV
 
CRYSTAL
PRIMVEC
0.013229 6.244793 6.368888 
6.332968 0.018992 6.363710 
4.228195 4.166233 0.006295 
PRIMCOORD
27 1
Mn	      4.24665     10.37834      6.40561         0.556016     -0.389902     -0.494649
Mn	      2.08910      4.14543      2.15666        -0.176625     -0.779110     -0.046558
Mn	      6.29587      4.22079      6.34018        -0.368703      0.457167     -1.338631
V	      0.04884      2.09657      2.13679         2.415428      0.296742      0.313502
Fe	      4.22394      6.24906     10.52057        -0.879839      0.008122     -0.224001
Fe	      4.28482      3.98550      4.23896         0.889457      0.297777      0.375542
Fe	      8.43800      6.41015     10.64072         0.443134      0.673990      0.319726
Fe	      6.35238      8.30986      6.45180         0.285229     -0.230677     -0.122472
Co	      6.27685      6.32502      8.47378        -0.827968      0.851638     -0.389828
O	      1.97696      2.22554      2.15661        -2.582511      0.898392      0.044765
O	      4.29833      4.23244      2.13276        -1.622439      1.131255     -0.410304
O	      4.24266      2.06810      4.21871        -0.034294     -1.063799     -0.089761
O	      6.34684      4.15941      4.38288         0.054406     -0.034699      1.319557
O	      6.26452      1.94161      6.60459        -0.056289      0.205974      1.470089
O	      8.31521      4.16537      6.41257         0.386178     -0.016179      0.136436
O	      2.23421      4.22367      4.19610         0.677582      0.867450     -0.016294
O	      4.15351      6.23027      4.01928        -0.853123     -0.682069     -1.646466
O	      4.29702      4.18167      6.21854         0.034661     -0.271436     -1.192345
O	      6.31258      6.36999      6.36896        -0.102846     -0.360499      1.775394
O	      6.27107      4.11256      8.32212         1.350136     -0.311354     -0.298497
O	      8.46165      6.12106      8.58279        -0.286520     -0.531236      0.811508
O	      2.17707      6.18828      6.25761        -1.855079     -0.980428     -0.689481
O	      4.32581      8.46968      6.38164         0.970565      1.163027      0.100449
O	      4.23662      6.26278      8.60979         1.757924      0.192638      1.181200
O	      6.41350      8.32596      8.38841        -0.132471     -1.516087     -0.953934
O	      6.32866      6.27252     10.70123        -0.053893      0.034662      0.091634
O	      8.46239      8.35577     10.63279         0.011884      0.088643     -0.026582
