# total energy = -149.69484784 eV
 
CRYSTAL
PRIMVEC
0.037885 6.247247 6.379748 
6.204578 0.029202 6.387773 
4.141867 4.175792 0.014045 
PRIMCOORD
27 1
Mn	      6.20276      4.18167      2.19309        -0.633915     -0.127947      0.276943
V	      6.12920      0.08459      6.33929        -1.862830      2.796746     -1.700334
V	      6.08722      2.26972      8.49147        -0.626114      1.997550     -1.125343
Fe	      4.04984      4.05424      4.30942         0.307425     -0.184464      0.140606
Cu	      4.12218      2.03641      2.19000        -0.295405      0.259295      0.495330
Cu	      8.31381     10.41870     10.66218        -0.561390      0.153212      0.665605
Cu	      6.29370      4.28275     10.61499        -0.184065     -0.203953     -1.087338
Cu	      6.24651      8.30449      6.42439         1.153220     -0.273926      0.151663
Cu	      4.19085      6.27123      6.42308         0.256902     -0.850700      0.040130
O	      4.24162      8.36302      6.56225         0.572935     -0.003045      0.522912
O	      3.98005      6.16402      8.65506         0.032469      0.531150      0.562074
O	      8.49615      8.47836     10.69466         1.154228      1.110754     -0.109012
O	      1.99815      1.92778      2.09380         0.979766     -0.924831      0.101674
O	      4.21958      4.32287      2.05857         0.639968     -0.983985     -0.122515
O	      4.10325      2.06113      4.18923        -0.014727     -0.394735     -1.423841
O	      6.01686      4.13456      4.10514         0.162497      0.063080     -0.849047
O	      6.23945      1.99663      6.52821         0.020329     -2.352444      0.854769
O	      8.47676      4.19604      6.39913         2.128814     -0.155581     -1.291218
O	      2.06707      4.14759      4.33012        -0.193755     -0.212743      1.297011
O	      4.12744      6.17584      3.96325        -0.214224     -0.021625      0.349943
O	      4.09570      4.25369      6.26393        -0.984197      0.936476     -0.315615
O	      6.12603      6.33905      6.44680        -0.951878      0.697188     -0.235711
O	      6.30567      4.01208      8.36085        -0.232590     -1.082450      0.954657
O	      8.45580      6.30022      8.46282         1.180262      0.262924      0.085964
O	      2.09331      6.18742      6.57923         0.294502     -0.645761      0.472589
O	      6.18290      8.46072      8.47527        -1.233917      0.493448     -0.680739
O	      6.44225      6.28678     10.86529        -0.894312     -0.883633      1.968843
