# total energy = -180.49087553 eV
 
CRYSTAL
PRIMVEC
0.008584 6.447995 6.181919 
6.337123 0.030003 6.159918 
4.240448 4.299346 0.004868 
PRIMCOORD
27 1
Mn	      6.38252      6.46755     12.24177         0.111477     -0.808776     -1.194672
Mn	      4.14996      2.15863      6.05900        -0.912360      0.074337     -0.637499
Mn	      6.35677      4.34015      6.07472         0.414200      0.207468      0.321548
Mn	      4.22610      6.43685      6.06996         0.292994     -0.001527     -0.514295
V	      4.33552      8.55348      8.34270         2.117734     -0.415803      3.407052
V	      4.23791      6.45877      2.19133        -0.057255      0.278690      3.749286
V	      8.43803      8.58931      8.36453        -0.213602     -0.850965      3.057177
Cr	      8.48106      8.65622     12.28952         0.080530      0.271506     -1.047224
Ni	      6.35732      4.31921      2.16243        -0.161916     -0.192278      0.724301
O	      2.13234      4.29265      4.14223        -0.053924      0.024910      0.052668
O	      2.10496      2.11267      1.95541        -0.436838     -0.198079     -0.474087
O	      4.29861      4.32882      1.94285         0.212921      0.322819     -0.895875
O	      4.20139      2.20966      3.91677        -0.162347      0.015672     -1.847182
O	      6.30397      4.26861      4.21206        -0.075678      0.245674     -0.090180
O	      6.42189      2.28616      6.24381        -0.373688     -0.107626      0.412603
O	      8.58482      4.24678      6.14794        -0.234503      0.224306     -0.064223
O	      4.28848      6.41584      3.93661        -0.026349      0.090489     -2.161677
O	      4.15245      4.32488      6.43291         0.946310      0.410684      0.079587
O	      6.33642      6.27399      6.18430        -0.164664     -1.175362     -0.437546
O	      6.22795      4.17880      8.14238        -1.120521     -1.309480     -0.470413
O	      8.60368      6.60680      8.22337         1.263662      1.348964     -0.641972
O	      2.05698      6.62094      6.17085         0.509508      0.571790      0.541215
O	      4.14790      8.57453      6.36776        -0.658592      0.171419      0.122439
O	      4.20671      6.51343      8.27667        -0.327308      0.576538     -1.314504
O	      6.31037      8.65610      8.25441        -1.000467      0.376718     -0.012049
O	      6.34768      6.49425     10.38769         0.090885     -0.105022      1.181523
O	      8.48935      8.64372     10.18072        -0.060209     -0.047067     -1.845998
