# total energy = -159.61322489 eV
 
CRYSTAL
PRIMVEC
0.003522 6.263954 6.199297 
6.246759 -0.006957 6.209834 
4.174371 4.192494 -0.014386 
PRIMCOORD
27 1
Ti	      4.17626      4.16857      4.21829         0.272621      0.468942      2.281464
Mn	      4.16780      2.09427      2.06105         0.539613     -0.302802     -0.244958
Mn	      4.12744      6.27434      6.19943        -0.162305     -1.033339     -1.478073
Mn	      6.26517      6.24220      8.29261         1.323389     -0.114515     -0.199765
Fe	      6.29710      0.18893      6.10051         0.766439     -1.522006     -0.849617
Fe	      8.27844      4.20433      8.21034        -0.889453      0.218221     -0.358765
Ni	      6.26051     10.43736      8.24889         0.067096     -0.310280     -0.361253
Ni	      8.31312     10.31769     10.39019        -0.322217     -0.192259      0.707810
Ni	      6.25762      6.29137      4.16897        -0.286284      0.237627      0.548124
O	      8.34260      8.38954     10.30508        -0.168294      0.079167      0.113577
O	      2.20992      2.12773      2.11399         0.965459      0.305252      0.421541
O	      4.18521      4.27538      2.06259        -0.148452     -2.198179     -0.324566
O	      4.12954      2.17438      4.08323        -0.781108     -0.367273     -1.304350
O	      6.18400      4.22312      4.06833         0.386481      1.063422     -0.774513
O	      6.25325      2.02490      6.22208         0.164215      0.767469     -0.257027
O	      8.48210      4.18901      6.22647         1.044252      0.269097      0.323803
O	      2.26061      4.15397      4.02572         0.109108     -0.868173     -0.929613
O	      4.21607      6.21143      4.27443         0.926079     -0.658633      0.810136
O	      4.15117      4.29369      6.08641        -0.190441      1.176711     -1.064276
O	      6.07118      6.26867      6.29980        -0.860446     -0.009673      0.309687
O	      6.33984      4.29478      8.25616         0.620350      1.360599      0.069824
O	      8.15076      6.23310      8.23474        -1.000479     -1.083836      0.027120
O	      2.13366      6.22658      6.25608        -0.152747      0.391929      0.790826
O	      4.16657      8.21826      6.30203         0.031631      0.002477      1.232345
O	      4.21103      6.16443      8.17778        -0.189018      2.096703      0.742917
O	      6.10540      8.22325      8.28304        -1.185111      0.092664      0.147998
O	      6.21456      6.24524     10.29290        -0.880378      0.130686     -0.380396
