# total energy = -102.38511880 eV
 
CRYSTAL
PRIMVEC
-0.000075 2.125797 2.125255 
4.095552 -4.255658 4.254497 
4.063793 4.239946 -4.239029 
PRIMCOORD
16 1
Li	      0.13315      2.20726      2.04344         0.006942     -0.000528      0.000199
Li	      2.06690      1.92769      0.19669         0.031647     -0.003581      0.002416
Li	      4.03753      2.07806     -2.07728        -0.021905     -0.009744      0.010798
Li	      3.95116     -0.00551      0.00560        -0.005431      0.015719     -0.016174
Ti	      6.03270      2.14616     -0.01219        -0.404591      0.090713     -0.081146
Ti	      6.21901     -0.03568      2.16204         0.377681     -0.162254      0.162546
Ni	      2.01248      0.10670      2.01771        -0.035534     -0.082707      0.082823
Ni	      4.10969     -0.01361      4.26310         0.032655     -0.010315      0.008759
O	      4.21064      2.11798      0.00608         0.403954     -0.009384      0.010862
O	      4.18222     -0.05750      2.18138         0.099601      0.100696     -0.100307
O	      6.12028      2.13395      2.11334         0.004792      0.007128     -0.009850
O	      3.96107     -2.07511      4.19792        -0.073974     -0.112974      0.112987
O	      6.15526      0.14991      4.10036         0.106564      0.174364     -0.175904
O	      3.95519      4.25060     -2.12524        -0.428109      0.003159     -0.002295
O	      2.03834      2.07124      2.17853         0.002662      0.128951     -0.130212
O	      6.08461      2.01794     -2.01735        -0.096957     -0.129242      0.124498
