# total energy = -181.76309149 eV
 
CRYSTAL
PRIMVEC
-0.009971 6.514069 6.167213 
6.494656 -0.000601 6.160318 
4.332848 4.339572 -0.003136 
PRIMCOORD
27 1
Sc	      2.14151      6.48487      8.09225        -0.711477      0.157332      0.779176
Sc	     10.76254      6.48805      8.16955         0.405702     -1.047755      0.569633
Sc	      6.48941      4.46479      6.09789        -0.767067     -1.416168     -0.911818
Sc	      4.38089      8.64939      4.28971         0.413979      0.357999     -0.059435
V	      4.41793      0.11415      4.08519         1.871123      0.931085      1.151792
V	      8.52811      8.63820      8.19642        -3.093115     -0.601570     -2.215349
Fe	      2.24780      4.17173      2.01766         0.671925     -0.016823     -0.108307
Cu	      4.35636      8.67912      8.15746         0.100462      0.022211     -0.636137
Cu	      2.22981      6.45769      4.23852         0.187527     -0.307474      0.603567
O	      2.10100      2.19232      2.03071        -0.174859     -0.200553     -0.160720
O	      4.28858      4.38282      2.08323         0.119053     -0.253244     -0.241927
O	      4.37569      2.00267      3.92104        -0.033564     -1.995109     -0.859805
O	      6.78496      4.33787      4.06006         1.250974      0.356991      0.075502
O	      6.43813      2.29028      6.18132         0.071179      0.423427     -0.351920
O	      8.62197      4.40351      6.18120        -0.960250      0.151757     -1.190237
O	      2.12492      4.33761      3.96591        -0.529948      1.237044     -0.387157
O	      4.31556      6.58425      4.13134        -1.016570      0.355561     -0.216494
O	      4.36791      4.30177      6.38500         0.802061     -0.041887      2.620297
O	      6.51771      6.44997      6.14935        -0.032427      1.559709     -0.072362
O	      6.50543      4.28658      8.24002        -0.353225     -0.500614     -0.072488
O	      8.64409      6.61847      8.39947         0.720295      0.988260      0.581854
O	      2.11059      6.54134      6.12279        -0.073976     -0.067924     -1.591782
O	      4.35218      8.67984      6.25264         0.047321      0.026220      2.220505
O	      4.25923      6.34778      8.27034        -0.128680     -0.480697      1.093341
O	      6.63280      8.72177      8.22597         2.152823      0.623730     -0.059160
O	      6.22604      6.46405     10.30024        -1.592987     -0.408523      0.055427
O	      8.73099      8.81800     10.12054         0.653720      0.147015     -0.615996
