# total energy = -181.14253674 eV
 
CRYSTAL
PRIMVEC
0.011202 6.523071 6.281916 
6.327706 -0.013151 6.306514 
4.212572 4.359787 -0.003388 
PRIMCOORD
27 1
Sc	      4.27160      6.46325      2.12390        -0.075970     -0.885039      0.230853
Sc	      2.20579      4.30878      2.06179         0.822737      0.025163      0.402316
Sc	      6.30385      4.45086      6.18153        -0.551545      0.091966     -0.338990
Sc	      4.14687      4.39061      8.34575        -0.393981     -0.304558     -0.391698
V	      6.26306      2.15848      4.25896        -0.359276      1.091535      0.450147
V	      6.32093      6.53023      8.38042        -0.077938      0.935136     -1.462186
Co	      8.41002      4.33681      4.22211        -0.374351      0.634417      0.089035
Co	      2.11265      2.33620      4.22605        -0.818166      2.119936     -0.252083
Ni	      4.33741     10.68697      6.26026         0.153315     -0.459423      0.121771
O	      2.08098      2.25106      2.17286        -0.288662      0.549332      1.494495
O	      4.19962      4.47323      2.04371        -0.521269      0.532595     -1.342869
O	      4.18887      1.95474      4.21041         0.605566     -1.411080      0.048093
O	      6.43481      4.19614      4.15401         0.814415     -1.053304      0.211173
O	      6.27290      2.23503      6.13562         0.148854     -0.327953     -1.149993
O	      8.42348      4.36510      6.22689         0.596010     -0.430949     -1.093569
O	      2.18152      4.25179      4.13887        -0.067253     -2.275018      0.119440
O	      4.43670      6.48330      4.16808         2.236321      0.139877     -0.052931
O	      4.29687      4.30280      6.35444         0.188557      0.115405      0.262571
O	      6.36702      6.49753      6.37938        -0.270465     -0.465662      1.211767
O	      6.33345      4.33771      8.34667        -0.100424      0.995392     -0.535494
O	      8.40329      6.51700      8.49776        -1.703517      0.243191     -0.136242
O	      2.08721      6.52969      6.26942        -0.464084     -0.156494     -0.001703
O	      4.23364      8.72267      6.28809         0.106126      0.606454     -0.029934
O	      4.32407      6.45438      8.55675         2.014255     -0.272940      1.240737
O	      6.31882      8.59138      8.61653         0.185995     -1.838872      0.800483
O	      6.17225      6.65308     10.46191        -0.294927      0.918162      0.098712
O	      8.27729      8.86209     10.47574        -1.510324      0.882730      0.006101
