# total energy = -172.42577837 eV
 
CRYSTAL
PRIMVEC
0.011221 6.277293 6.246632 
6.456292 0.006977 6.251282 
4.308589 4.192489 0.000120 
PRIMCOORD
27 1
Sc	      8.51318      6.33337      6.35644        -0.943085      1.146529     -0.761965
Sc	      0.06517      4.12560      4.05579        -0.094062     -1.053109     -0.407508
Mn	      6.40426      4.22569      6.30002        -1.654368      1.197919      0.560123
V	      4.40334     10.42538      6.34424         3.256324     -1.667744      1.003941
V	      2.19971      8.30499      6.33502         1.011756     -2.850250      1.902767
V	      4.23279      4.26566      4.15674        -1.437668      2.219041      0.724014
Ni	      4.30838      6.30171     10.30555        -0.237608      0.344709     -0.859168
Ni	      6.50137      8.38217     10.29110         0.354566     -0.373823     -0.843576
Ni	      8.60354      4.24871      8.33457         0.039592      0.065663      0.981366
O	      2.14051      2.18211      1.85191         0.124595      0.530505     -2.678783
O	      4.24060      4.22081      1.94619        -0.467075     -0.104715     -1.174624
O	      4.33747      2.32099      4.14795         0.893433      0.096397      0.320118
O	      6.35208      4.18058      4.31117        -0.208114     -0.500955      0.848244
O	      6.54168      2.10779      6.19430         0.377537     -0.354693     -0.469082
O	      8.73147      4.16643      6.18851        -0.346357     -0.114772      0.075490
O	      2.21713      4.16135      4.11775         2.047932      0.140520     -0.567455
O	      4.32256      6.11781      4.09664        -0.137309     -2.449693     -0.092477
O	      4.24155      4.18362      6.10094         1.681720      0.057876     -1.507368
O	      6.50165      6.12182      6.23807         0.469572     -1.378777      0.436586
O	      6.54151      4.15753      8.26982         0.559741      0.295932     -1.146487
O	      8.66655      6.26862      8.30207        -0.170748     -0.670546      0.495106
O	      2.00175      6.38401      6.25471        -2.426711      1.971837      0.329611
O	      4.22147      8.45820      6.19907        -1.534074      2.051916     -0.010708
O	      4.30286      6.28018      8.39719         0.001824      0.044311      0.313886
O	      6.47428      8.37702      8.35671         0.101831     -0.095964      0.492058
O	      6.43540      6.26499     10.63166        -0.957126      0.384845      1.044640
O	      8.68173      8.40936     10.58702        -0.306118      1.067038      0.991248
