# total energy = -195.37916881 eV
 
CRYSTAL
PRIMVEC
-0.005605 6.270249 6.396579 
6.378123 0.021511 6.369172 
4.268756 4.178369 -0.001955 
PRIMCOORD
27 1
Sc	      6.30358      6.33531      8.44239        -1.022772      0.878495      0.176211
Mn	      4.20776      4.23226      8.49886        -0.782411      1.476584      0.049442
V	      6.41706      8.32369     10.63275         1.009890     -1.969359     -1.502502
V	      2.14301      2.09020      4.10232        -0.826428      1.302874     -3.590712
V	      8.56677      6.19247      6.39011         0.322676     -0.942814      1.888810
V	      6.39378      4.16311      6.39569         0.766819     -0.083568      0.117330
V	      4.26836      8.35688      4.33801         0.930705      0.022441      2.951075
Cr	      2.17911      8.29224      6.49077         1.258788     -2.088659      0.829504
Cr	      4.21398      4.24701      4.17977        -1.338775      1.106548     -1.973175
O	      2.18475      2.08040      2.13919         0.001326     -0.042816      2.145355
O	      4.25992      4.19958      2.25772         0.003919     -0.046433      2.041028
O	      4.28312      2.16066      4.33148         0.163072      0.927758      1.533846
O	      6.29023      4.13248      4.31791        -0.794522     -0.332458      1.400083
O	      6.40888      2.13642      6.32429        -0.510402      0.995990     -1.027437
O	      8.40121      4.19441      6.42501        -2.428596      0.501838     -0.103024
O	      2.15024      4.12537      4.25708        -0.579731     -2.144639      0.005287
O	      4.40307      6.31051      4.24112         1.842434     -0.029917      0.061049
O	      4.37045      4.10700      6.28552         1.851077     -1.054935     -0.280370
O	      6.48840      6.16751      6.27989         1.351457     -1.181018     -0.643132
O	      6.22238      4.21446      8.56161        -0.377718      0.383647     -0.406419
O	      8.44746      6.43778      8.35895        -0.102831      0.066565     -3.046897
O	      2.11331      6.36688      6.40019         0.216278      2.128687      0.349945
O	      4.16655      8.38548      6.27711        -1.359777     -0.011883     -3.318306
O	      4.28421      6.14696      8.48878         0.095940     -1.282306     -0.161997
O	      6.48887      8.37621      8.60026         0.773994     -0.242738      2.361039
O	      6.36331      6.28954     10.55153        -0.020743      1.639890     -0.385112
O	      8.46544      8.37397     10.76751        -0.443667      0.022226      0.529078
