# total energy = -156.74571285 eV
 
CRYSTAL
PRIMVEC
0.007839 6.209038 6.314797 
6.286380 0.049400 6.272854 
4.227272 4.147584 -0.003284 
PRIMCOORD
27 1
Sc	      2.07978      6.22638      8.38054         0.080721      0.528499      0.030522
Sc	      4.18552      2.15250      2.06484        -0.526190     -0.006975      0.509375
Cr	      6.30957      6.29599      4.26377         0.473412     -0.036031     -0.242217
Cr	      6.36354      6.21207      8.38924         0.346236     -1.115643     -0.272529
Co	      8.41424      6.25748     10.46421        -1.216202      1.581052     -0.142067
Cu	      4.20005      4.15238      4.26273         0.223419     -0.356601      0.191354
Cu	      4.21292      6.22727      6.26525        -0.272006      0.406345      0.281008
Cu	      8.49069      8.27803      8.41833        -0.031112     -0.425252     -0.063941
Cu	     10.41573      4.19311      6.18404        -0.385069      0.141330     -0.501146
O	      4.20000      4.25268      6.40507         0.189070      0.760507      0.300839
O	      6.51917      6.22303     10.37239         1.812251     -0.094277      0.214468
O	      8.43123      8.15460     10.38478         0.333166     -2.203666     -0.815091
O	      2.12674      2.07903      2.24701         0.574015     -0.640125      1.650998
O	      4.26452      4.18586      2.10204         0.329806     -0.496861     -0.327299
O	      4.05440      2.15413      4.19584        -0.822294      1.352194      0.089062
O	      6.23072      4.27505      4.18002        -1.378657      1.493983     -0.190539
O	      6.28666      1.89867      6.24458        -0.045222     -0.668637     -0.036769
O	      8.49868      4.18269      6.26807         0.558196     -0.045802     -0.030966
O	      2.24108      4.18836      4.19656         1.049990     -0.339438      0.205351
O	      4.17378      6.16551      4.32369        -0.322483     -1.027819      0.397951
O	      6.21528      6.27597      6.31118        -0.873115      0.044586     -0.377212
O	      6.24107      4.23002      8.36738        -0.726280      1.701912      0.000724
O	      8.35340      6.31631      8.53275        -0.578871      0.388417      0.762271
O	      2.14261      6.22911      6.19235         0.228365      0.067305     -0.542310
O	      4.18917      8.39443      6.31827         0.004597     -0.050752     -0.086758
O	      4.26378      6.19229      8.39063         0.320619      0.005440     -0.906246
O	      6.29732      8.28352      8.43481         0.653639     -0.963689     -0.098833
