# total energy = -153.60895013 eV
 
CRYSTAL
PRIMVEC
0.017683 6.316123 6.170897 
6.286528 0.036568 6.151719 
4.222580 4.229675 -0.006942 
PRIMCOORD
27 1
Sc	      8.36251      6.41576      6.23375        -0.858853      0.800614     -0.180937
Sc	      6.32103      4.25944      6.22545        -0.246647      0.374134      0.277122
Cr	      4.22108      6.31056     10.21169         0.087266     -0.640854     -0.265269
Cr	      0.08692      4.20531      4.11015         1.839404     -0.258411      0.033069
Cu	      4.17792      2.17815      2.00742        -0.239641      0.676543     -0.218687
Cu	      6.35885      8.44704     10.22646         0.094393     -0.174860      0.031975
Cu	      4.31689      6.22369      2.06807         0.280257     -0.369396      0.184360
Cu	      4.17089      6.33072      6.17696         0.681880     -0.621715      0.009179
Ni	      8.39548      6.36804     10.25837        -0.017088     -0.180155     -0.310878
O	      2.22108      6.31438      6.07580         0.892819      0.029961     -0.405410
O	      4.20058      8.34252      6.10831        -0.217295     -1.209849     -0.373891
O	      4.20263      6.44251      8.17538        -0.044905      0.974929      1.183976
O	      6.21973      8.45434      8.29512        -0.719090      0.039987      0.427616
O	      2.10288      2.12515      2.08655        -0.050839     -0.265913     -0.108632
O	      4.21831      4.22541      2.05525         0.119305     -0.167390     -0.041644
O	      4.29876      2.05510      4.01835         0.647064     -0.994045     -0.293274
O	      6.41295      4.10522      4.12083         1.509105     -0.499734     -0.020947
O	      6.28440      2.14000      6.14189        -0.653184      0.458443     -0.210048
O	      8.37964      4.33568      6.03636        -0.216390      0.455250     -1.803054
O	      1.90447      4.26590      4.14201        -1.829994      0.695618     -0.033652
O	      4.21337      6.43673      4.13476        -0.851823      0.898496      0.074507
O	      4.22874      4.27380      6.13980         0.376427      1.053268      0.211872
O	      6.31866      6.31015      6.16728        -0.992075     -0.362461      0.048329
O	      6.30123      4.11045      8.35648         0.075352     -0.906579      0.834854
O	      8.54490      6.34671      8.23415         1.127878     -0.170731      1.020744
O	      6.26204      6.27291     10.25126        -1.092831     -0.068332     -0.061839
O	      8.45957      8.52948     10.23010         0.299504      0.433181     -0.009439
