# total energy = -176.62322775 eV
 
CRYSTAL
PRIMVEC
-0.053380 6.273106 6.451930 
6.441960 -0.008572 6.406728 
4.303820 4.162511 -0.014039 
PRIMCOORD
27 1
Sc	      6.41422     10.28978      8.57955         0.004864      1.507509      0.022277
Sc	      6.47231      2.13832      8.48408        -0.907933      0.174812     -0.869747
Sc	      6.37058      4.31616     10.65503         1.149003     -0.516824     -0.264715
Sc	      4.30852      6.29335      6.52715         1.042893     -0.242990      0.518862
V	      4.20000      4.08549      4.28767        -1.073224     -1.070337      0.619449
V	      8.43354      6.12277      6.50466        -0.548690      1.428594      2.720048
Cu	      0.02092      6.22096      6.41934        -0.148853      0.247481     -0.096019
Cu	      4.30971      6.29856     10.63787         0.530491     -0.081446      0.006624
Ni	      2.12563      2.08599      4.23308         0.165767      0.193304      0.057354
O	      2.05661      2.05872      2.16694        -0.330572     -0.584862      1.410794
O	      4.28403      4.15865      2.19993         0.895332      0.314992      0.369215
O	      4.19482      2.08807      4.40485        -0.547579      1.056311     -0.154759
O	      6.10591      4.20342      4.25269        -0.325814      0.597948     -0.757523
O	      6.16298      1.95166      6.42969        -0.535116     -1.529397      0.027539
O	      8.44381      4.34812      6.28994         0.958200     -0.429723     -1.090969
O	      2.33446      4.17162      4.23909         1.410588     -0.666090     -0.003188
O	      4.28177      6.21933      4.29652         0.823228     -0.691411      0.085043
O	      4.29368      4.03741      6.25748        -0.065691      0.045759     -2.072460
O	      6.56409      6.26489      6.33809         0.223492     -0.144443     -1.203013
O	      6.44290      4.13523      8.62223        -0.112947      0.030828      0.467939
O	      8.55485      6.26516      8.25839         0.271240     -0.050712     -1.850672
O	      2.29751      6.28262      6.51038        -0.786775     -0.191456      0.891188
O	      4.34179      8.36416      6.36438        -0.083673      0.832654     -0.647634
O	      4.22764      6.27330      8.58111        -0.763052     -0.375081      0.984232
O	      6.40810      8.34365      8.59449         0.122520     -1.558619     -0.265906
O	      6.53596      6.29699     10.81700        -1.385712      0.539052      1.370915
O	      8.62643      8.51112     10.73066         0.018012      1.164146     -0.274874
