# total energy = -195.16099978 eV
 
CRYSTAL
PRIMVEC
0.047070 6.345365 6.486007 
6.283714 0.030026 6.503109 
4.200704 4.252927 0.008496 
PRIMCOORD
27 1
Sc	      8.37915      6.47713     10.85936        -0.247066      1.721987     -0.050750
Mn	      2.17267      2.04317      4.27350         0.104741     -1.349370     -0.794992
Mn	      6.21535      6.38922      8.65495        -1.482024      0.174960      0.532710
V	      2.11361      4.20349      2.16323         0.970718     -1.345546     -2.624212
V	      4.38723      4.20665      4.27916         3.632829     -0.849664     -1.712026
V	      4.29201      2.09190      6.48349         3.047838     -0.648491      0.067205
V	     10.48429      8.51787     10.86759        -2.820402      1.022538      1.013069
V	      6.30190      8.51779      6.58326        -0.305106      1.743108      4.331028
Cr	      8.32315      2.17870      6.54962        -0.750629     -0.472550      0.159611
O	      2.10421      2.21863      2.06284         0.067819      2.325924      0.514441
O	      4.07118      4.26444      2.38810        -1.895798      0.020837      2.487613
O	      4.25546      2.26374      4.38436        -1.302157      1.146358      1.770196
O	      6.15846      4.23884      4.31297        -3.056260      0.685822      0.013558
O	      6.29077      2.16026      6.55025        -1.715996     -0.019738     -0.086418
O	      8.38469      4.27494      6.60903         0.021085      1.379323      2.105111
O	      2.16638      4.28503      4.38202        -0.693848     -0.618650     -0.084430
O	      4.20143      6.37480      4.28171         0.941289      0.025011      0.305358
O	      4.12871      4.15481      6.32972        -1.391777     -1.540964     -1.157398
O	      6.42567      6.43094      6.46283         1.147722      1.343467      0.007080
O	      6.34913      4.30247      8.80904         1.697540      1.283565      1.570804
O	      8.26135      6.30563      8.66047        -0.678000     -0.786614     -1.276813
O	      2.11597      6.42322      6.45696        -0.007092     -1.286698     -0.822003
O	      4.22758      8.47910      6.35828         0.812081     -0.083077     -2.234179
O	      4.33580      6.36257      8.65555         1.289544      0.090354     -0.081513
O	      6.32433      8.42055      8.47773        -0.286805     -1.328197     -3.282298
O	      6.33220      6.26689     10.82664         0.371039     -1.847958     -1.717878
O	      8.42120      8.50984     10.97726         2.528713     -0.785735      1.047128
