# total energy = -158.56485536 eV
 
CRYSTAL
PRIMVEC
-0.020866 6.226293 6.087767 
6.305978 -0.047625 6.115027 
4.174256 4.137981 -0.001179 
PRIMCOORD
27 1
V	      2.12292      4.08960      2.06483         1.136809     -2.864670      1.966580
V	      8.23313      8.23400      8.05271        -3.154841      0.582358     -1.168552
Cr	      8.38163      4.12775      4.11138        -0.839469      0.293495      0.605579
Co	      4.21441      8.27626      8.11210        -0.128121      0.258535     -1.305113
Co	      0.01798      2.08981      2.05518         1.026336     -0.410863      1.222731
Co	      6.27650      4.08503      6.09279        -0.396968      0.506624     -1.462785
Co	      2.10922      6.24699      4.20564         0.921942     -0.028767      0.087438
Co	      6.25697      6.14121      8.11715         0.392789      0.140143     -0.412371
Ni	      6.32125      6.18539     12.15904         0.852405      0.007425      0.018670
O	      1.97994      2.18928      2.04267         0.585092      3.019931      0.239623
O	      4.09046      4.28032      1.99841        -1.944304     -0.756282     -0.756146
O	      4.19379      1.95900      3.99233         0.117360     -1.852619     -0.886572
O	      6.40507      4.08995      4.17127         1.798462      0.036197      1.428065
O	      6.32100      2.14873      6.24119        -0.206189      0.519385      1.338528
O	      8.44622      4.14421      6.19581        -0.593899      0.059635     -0.217317
O	      2.05180      4.22337      3.86678        -0.003139      1.647443     -1.699184
O	      4.09021      6.20529      3.93897        -1.768597      0.049633     -1.608367
O	      4.18003      4.07970      6.25688         1.492195     -0.050147      1.985304
O	      6.26457      5.97589      6.21326        -0.071061     -1.581816      1.181179
O	      6.30316      4.10088      8.06197        -0.108864      0.705481     -0.846260
O	      8.31063      6.18715      8.20554        -0.479563      0.373773      1.106950
O	      2.07645      6.24112      6.00906        -0.852601      0.013663     -2.029777
O	      4.18082      8.35669      6.17454        -0.046676      0.541729      1.829942
O	      4.28468      6.07519      8.18978         0.751741     -0.399769      0.795003
O	      6.33188      8.07112      8.07847         1.640124     -0.604667     -0.146424
O	      6.25505      6.18180     10.07564        -0.343148      0.053116     -0.286442
O	      8.39117      8.25107      9.99089         0.222184     -0.258967     -0.980282
