# total energy = -165.08013232 eV
 
CRYSTAL
PRIMVEC
0.008100 6.188154 6.215979 
6.202599 0.007240 6.216714 
4.149096 4.139865 -0.009127 
PRIMCOORD
27 1
Ti	      4.13329      6.31834      2.23457        -1.092149      0.744383      0.985572
Ti	      4.04253      2.18396      6.13960        -0.803655      2.082494      0.599561
Mn	      6.24716     10.27050      8.31009         0.444750      0.110767     -0.230663
Cr	      6.22339      6.15431     12.36835         1.035852     -0.141882     -1.616420
Cr	      4.15371      6.22007      6.14894         0.287005     -0.330854     -1.034490
Ni	      4.15608      2.06231      2.11133         0.285419     -0.162163      0.633650
Ni	      8.32568     10.26539     10.33990         0.252606     -0.163240     -0.560894
Ni	      2.07361      4.12322      2.17200        -0.243704      0.415517      0.505480
Ni	      6.25667      4.08757      6.13032        -0.497645     -0.103575      0.066583
O	      2.09117      4.13745      4.08909        -0.010360      0.044533     -0.321951
O	      8.31390      8.41340     10.36033        -0.140981      0.470832     -0.085015
O	      1.98124      1.96773      2.08941         0.483526     -0.065612      0.033705
O	      4.25353      4.16917      2.02008        -0.285053     -0.335158     -0.864797
O	      4.13760      1.93662      4.24509        -0.033025     -1.078139     -0.536496
O	      6.36496      4.11894      4.03407         0.876423     -0.465930     -0.255709
O	      6.09405      2.00144      6.31281        -0.405753     -0.638158      0.283181
O	      8.34224      4.22800      6.27423         0.406986      0.324372     -0.082198
O	      4.12050      6.21496      4.11289         0.062018      0.126995      0.538121
O	      4.20578      4.09718      6.14661         0.456398      0.069478     -0.162669
O	      6.23947      6.15228      6.23694        -0.518079     -0.615725     -0.320481
O	      6.25262      4.02107      8.19364         0.675840     -0.706521     -0.359992
O	      8.37860      6.20057      8.19149         0.919128     -1.014016     -0.670621
O	      2.08969      6.19204      6.33723        -0.146649     -0.134395      1.065087
O	      4.14109      8.23385      6.29020         0.043966      0.347434      0.566451
O	      4.02858      6.20633      8.17945        -0.876436      0.590166     -0.070360
O	      6.17978      8.40489      8.28947        -0.591265      0.722737      0.271414
O	      6.10846      6.18771     10.43607        -0.585162     -0.094337      1.623952
