# total energy = -200.20260158 eV
 
CRYSTAL
PRIMVEC
-0.019878 6.378755 6.209162 
6.351488 -0.030379 6.219540 
4.215838 4.241009 -0.001705 
PRIMCOORD
27 1
Ti	      2.09263      8.47001      6.20786         0.447550     -0.323467      2.053969
Ti	      4.17164      6.38027      2.21597         1.328732     -0.638167      1.802263
Ti	      2.06590      4.31809      2.20008        -0.392556     -0.312673      2.164037
V	      4.21267      0.01747      4.10344        -1.753245      1.834358     -0.164622
V	      6.26010      2.13058      4.14024        -2.659816      1.782228     -0.855691
V	      4.29967      6.31938      6.16164         2.947136     -0.470847     -2.045164
V	      8.49112      8.39821      8.26709        -0.193042     -0.020575     -0.344907
Fe	      6.31263      8.45186      6.19878        -0.013671     -0.539181     -1.176952
Co	      4.23463     10.57720      6.21601        -0.081748      0.077603      0.493486
O	      2.02097      2.24207      1.98855        -1.293198      1.070251     -1.463286
O	      4.08149      4.33797      2.04806        -1.151633      1.187437     -1.310425
O	      4.29981      2.07861      4.12881         3.013250     -2.242156      0.014212
O	      6.44094      4.13315      4.12699         2.592869     -2.826403      0.153549
O	      6.48249      2.07398      6.28615         0.540994     -0.890093     -1.486902
O	      8.46599      4.08943      6.22723         1.083184     -0.859816     -1.141906
O	      2.05867      4.29492      4.05150         0.131926     -0.004507     -0.261990
O	      4.21412      6.36525      4.05689        -0.077692     -0.065801      1.674991
O	      4.22119      4.33925      6.20993        -1.358250      2.207669      1.707053
O	      6.23214      6.36993      6.16601        -4.286041      1.652408      0.120068
O	      6.40389      4.15440      8.28688        -1.635440     -1.333240     -0.001659
O	      8.49613      6.27876      8.24522         1.388627      2.040699     -0.050144
O	      2.16424      6.50276      6.20953         0.772850     -0.766873      0.015248
O	      4.07962      8.42862      6.22028         1.114161     -1.228691      0.011348
O	      4.26034      6.22491      8.32305         0.168854     -2.109576     -0.434062
O	      6.43252      8.46881      8.26340         2.171945     -0.285838      0.835163
O	      6.24922      6.45948     10.40892        -1.752303      1.781811      1.011857
O	      8.37236      8.49838     10.41861        -1.053444      1.283440     -1.319537
