# total energy = -103.08045444 eV
 
CRYSTAL
PRIMVEC
-2.093506 4.098260 -2.093412 
2.075682 4.080113 2.075731 
6.244469 -0.009181 -2.075238 
PRIMCOORD
16 1
Li	      2.11618      4.08106      2.03594         0.016844      0.001179     -0.020835
Li	      2.11280      2.03963     -0.03035        -0.010858      0.000765     -0.006967
Li	      4.12675      4.08117      0.02409        -0.006176      0.001889      0.011092
Li	      0.00084      4.09211     -0.01890        -0.001199     -0.003972     -0.003730
Ti	      2.02542      6.13034      0.03499        -0.033109      0.021737      0.035055
Ti	      4.21785      6.13108     -2.16080         0.067870      0.005465     -0.070178
Ni	      4.12574      2.04196     -2.05159        -0.019302      0.000079      0.024884
Ni	      2.05193      4.09142     -2.07031        -0.024160     -0.003620      0.015550
O	      2.14481      6.13599     -2.04332         0.034051      0.122184      0.104220
O	      2.06600      4.23184     -0.02520        -0.012404      0.154459      0.126074
O	      4.10056      6.12636     -0.08762        -0.109289     -0.121808     -0.030736
O	      4.12775      4.19179     -2.09126         0.104664      0.160482     -0.008741
O	      6.21934      6.12520     -2.06308        -0.019102     -0.001819     -0.098787
O	      0.00604      3.95124     -2.08482        -0.117975     -0.165723      0.014575
O	      6.24144      3.97292      0.02323         0.015218     -0.165984     -0.110772
O	      6.21178      2.03941     -2.06923         0.114927     -0.005312      0.019297
