# total energy = -202.57067493 eV
 
CRYSTAL
PRIMVEC
0.003132 6.326494 6.342960 
6.239834 0.008042 6.337821 
4.156067 4.210330 0.009410 
PRIMCOORD
27 1
Ti	      6.19582      6.28635      4.35077         0.191338     -1.483534      0.549729
Ti	      8.29519      8.39707      8.41646         0.493228     -0.280851     -2.120899
Ti	      6.27372      6.38995      8.39154         0.225146     -0.579383      0.100605
V	      8.21846      2.11762      6.31722        -3.844216     -0.718604      0.288711
V	      4.18198      2.17624      2.15145         0.860872      3.263452      0.101898
V	      8.30599      4.23236      8.42910         1.729134     -0.603077      0.172422
Cr	      2.08665      6.27399      4.25196         0.026144     -1.133825      0.987719
Cr	      4.17364      6.31728      6.34838        -0.689931     -1.048308     -1.337574
Fe	      8.36290     10.51973     10.63026        -0.720779      1.124903      1.549687
O	      2.05882      2.21487      2.17750         1.237850      1.133994     -1.004717
O	      4.08874      4.10827      2.10942        -2.629525     -1.920006     -0.079198
O	      4.07763      2.13000      4.16542        -0.996011     -1.762564     -2.296608
O	      6.27339      4.40985      4.23191         1.769028      1.842591      0.182348
O	      6.31038      2.08328      6.32616         3.829688     -0.023496      0.000972
O	      8.34705      4.11177      6.39162        -0.008431     -2.188942     -0.283675
O	      2.06050      4.21085      4.20215        -0.143789      0.574917     -2.291815
O	      4.14635      6.30478      4.34173         0.158060      0.074449      1.463812
O	      4.16721      4.28659      6.51132        -0.033923      1.543566      2.259289
O	      6.22918      6.38282      6.33434        -1.417556      0.012429      0.538504
O	      6.21669      4.35175      8.42670         0.377325      1.492856     -0.112237
O	      8.35817      6.31286      8.52049        -1.953964      0.589446      0.446835
O	      2.14938      6.37246      6.23943         1.138762      2.217316     -0.717337
O	      4.08166      8.31050      6.47613        -1.208120     -0.964511      2.122671
O	      4.16492      6.31478      8.41346         1.552393     -0.286288      0.644615
O	      6.26457      8.42717      8.46207         0.449640     -1.990194     -0.095228
O	      6.29282      6.31954     10.42737        -0.475564      0.114046     -2.000949
O	      8.32170      8.32942     10.50325         0.083203      0.999617      0.930419
