# total energy = -173.53825827 eV
 
CRYSTAL
PRIMVEC
0.043089 6.001099 6.706469 
6.206179 0.013306 6.736505 
4.129181 4.011565 0.019208 
PRIMCOORD
27 1
Mn	      6.17829      4.00416      2.29429        -0.097319      0.067671      0.592085
Mn	      4.27661      1.96883      6.74487         1.245253      0.089129     -0.758900
Mn	      8.31896      6.01120     11.12573         0.248928      0.225849      0.085881
Mn	      6.19050      8.00926      6.73541        -0.301033      0.529805     -0.433633
Mn	      6.19392      5.94281      9.04654        -0.577927     -0.864287      0.834129
V	      4.12211      6.02906      6.76511        -0.842525      1.166981      0.284968
V	      2.13921      1.99913      4.43216         0.855920      0.448692     -0.932098
Co	      6.24608      8.02299     11.19893         0.413875      0.213023      0.447229
Cu	      6.23561      2.06231      8.92489         0.268512      0.160661     -0.035196
O	      2.04550      2.01501      2.42026        -1.333967     -1.275807      1.353250
O	      4.28685      4.10266      2.23087         0.808956      1.666789     -0.089144
O	      4.11476      2.00739      4.62034        -0.812801     -0.159164      1.684906
O	      6.21460      4.02763      4.33380        -0.138885      0.786928     -1.426944
O	      6.24484      2.05521      6.39951        -1.712055     -0.026073     -0.368649
O	      8.32261      4.13373      6.74339        -0.025773      0.753638      0.132491
O	      2.08043      4.01474      4.57242        -0.100553     -1.260925      0.910430
O	      4.13317      6.00902      4.76284         0.426748     -0.060057      1.033059
O	      4.01764      4.03130      6.76261        -0.761255      0.022298     -0.014359
O	      6.14187      6.04853      6.68509         0.008902      0.323503     -0.120478
O	      6.20629      4.02141      8.97618        -0.035402     -0.495978     -0.084254
O	      8.31309      5.99550      8.88125         0.674408     -0.215905     -1.010011
O	      2.15682      5.93106      6.81963         1.313372     -0.425547      0.543102
O	      4.24810      7.87626      6.77166         0.742330     -1.988960      0.030417
O	      4.09178      5.99118      8.73857         0.152510     -0.053084     -1.657525
O	      6.18131      7.95603      9.12959         0.008937      0.356453      0.012598
O	      6.34956      6.08852     11.13539         0.692866      0.983810     -0.883322
O	      8.18668      7.92111     11.18377        -1.122023     -0.969443     -0.130031
