# total energy = -145.07161173 eV
 
CRYSTAL
PRIMVEC
-0.019676 6.078259 6.140346 
6.193998 -0.079742 6.201260 
4.108256 4.071136 -0.032477 
PRIMCOORD
27 1
V	      6.06588      6.10509      8.14378        -2.345411      0.668595     -0.719083
Cr	      8.25964      8.00138      8.17713         0.004542      0.976059     -0.520612
Co	      6.16322      1.99678      4.11780        -0.611141     -0.037293      0.256182
Co	      2.07365      3.99356      2.02031         0.116042     -1.071183     -0.814350
Co	      6.20818      3.95147      6.18293         0.161591     -0.286465      0.246837
Ni	      4.11066     10.11560      6.12288        -0.343365     -0.216446      0.196153
Ni	      2.09077      6.10647      4.17422         0.168875     -0.055218      0.132896
Ni	      2.07562      2.00074      4.11902         0.190946     -0.041645      0.317364
Ni	      4.13153      4.03505      4.11999         0.070473     -0.247747      0.055451
O	      4.10754      8.18113      6.10986        -0.069287      0.413474     -0.075520
O	      2.02403      2.18960      2.11011         0.065755      1.622403      0.167315
O	      3.91326      4.08876      2.00742        -1.340340     -0.022877     -0.007104
O	      4.19490      2.04824      4.08742         1.087097      1.484306     -0.041856
O	      6.18006      3.95771      4.26426        -1.105567     -0.077923      0.752514
O	      6.20041      2.03239      5.99741         0.136314      0.739863     -1.329467
O	      8.16531      3.99705      6.37397        -0.438630     -0.144085      1.136517
O	      2.09386      4.05176      3.93056         1.121273      0.237881     -0.254023
O	      4.15584      6.00813      4.12844        -0.146971     -1.230376     -0.119222
O	      4.28737      3.97492      6.22823         1.364476     -0.147167      0.781655
O	      6.21319      5.95252      6.31476         0.051678     -1.278399     -0.081893
O	      6.18588      4.06670      8.16272         0.274875      0.400755     -0.683589
O	      8.08383      5.96594      8.27878        -0.152835      0.100180      0.985938
O	      1.96626      6.06963      6.16071        -0.364568      0.126871     -1.075748
O	      4.25992      5.94906      8.21070         1.588194     -1.353688      0.169770
O	      6.23473      7.95053      8.22369         0.705670     -0.591396      0.789831
O	      6.16182      6.12561     10.13493         0.765673      0.846346      0.620623
O	      8.08998      8.04895     10.14662        -0.955359     -0.814824     -0.886579
