# total energy = -161.53224410 eV
 
CRYSTAL
PRIMVEC
-0.010826 6.482203 6.138069 
6.154993 -0.000338 6.128249 
4.091880 4.303808 0.011064 
PRIMCOORD
27 1
Mn	      6.11120      8.60127     10.22083        -0.093209     -1.247341     -0.420599
Mn	      8.22737      4.38593      8.17940         0.572546      0.625322      0.679544
Mn	      2.05596      2.20026      4.09898        -0.170036      1.121265     -0.419876
Mn	      4.10774      6.48578      6.16392        -0.354009      0.147247      0.060894
Fe	      5.98844      4.27897      2.04401        -0.645607      0.190448     -0.213216
Fe	      4.17155      6.45078     10.15049         1.051869      0.228654     -0.311002
Co	      2.05807      8.63736      6.14858         0.453577     -0.511269     -0.401682
Co	      2.04241      4.35866      6.15263         0.156246      0.086231      0.131401
Cu	      6.10780      4.25972      6.20020        -0.676169     -0.279006      0.575678
O	      6.30520      4.30334      8.12395         0.717665     -0.010758     -0.623827
O	      2.02089      2.17405      2.15688        -0.155893      0.343804     -0.267088
O	      4.06013      4.30953      2.01881        -0.126361      0.034281     -0.034186
O	      4.06831      2.01681      4.15468         0.288672     -1.393101     -0.070961
O	      6.16650      4.30524      4.11717         0.875870      0.084059      0.145388
O	      6.20070      2.09105      5.98419         1.238878      1.171795     -0.281798
O	      8.18453      4.21269      6.18518        -0.935313     -1.014672      0.214223
O	      2.06890      4.25201      3.99464        -0.033239     -1.751266     -0.008956
O	      4.17123      6.45592      4.25293         1.311919     -0.004942      0.631278
O	      4.08688      4.54362      6.18975        -0.441258      0.604339      0.051947
O	      6.04807      6.58394      6.07027        -0.310946     -0.081041     -0.620362
O	      8.23049      6.23328      8.16351        -0.030771     -1.055379      0.048392
O	      2.15024      6.48494      6.17842         0.522057      0.047333      0.586111
O	      4.09296      8.42122      6.13776        -0.200187     -0.437929      0.132895
O	      3.97830      6.50959      8.15049        -0.712569     -0.124926     -0.402386
O	      6.08561      8.77972      8.28208        -0.250249      0.916632     -0.348123
O	      6.08181      6.58975     10.19294        -0.747250      1.589909     -0.048247
O	      8.11421      8.76502     10.19595        -1.306232      0.720313      1.214560
