# total energy = -136.49734812 eV
 
CRYSTAL
PRIMVEC
0.029673 6.321437 6.174514 
6.175136 0.027967 6.176518 
4.139947 4.238813 -0.004741 
PRIMCOORD
27 1
Sc	      6.16162      2.16442      4.13477        -0.252628     -0.631135      0.139473
Mn	      4.15008      8.44213      8.19529         0.574578     -0.021940      0.171694
Cu	      8.24731      2.17118      6.18976        -0.229929      0.228903      0.024127
Cu	      2.08633      6.34457      8.19635        -0.079478     -0.110361     -0.003389
Cu	      8.26747      4.28641      8.24982         0.633270      0.175603      0.080242
Cu	      4.17550      8.43174      4.16504         0.327315     -0.187243      0.432493
Cu	      2.13210      6.30611      4.16186         0.475551     -0.387670      0.317456
Cu	      6.18607      6.30178      8.20570        -0.377534      0.353156     -0.381571
Ni	      6.16425      4.25996      6.14131        -0.268250      0.115958     -0.049297
O	      8.20265      6.27312      8.32179        -0.420720     -0.903996      0.304027
O	      2.06333      6.45241      6.23643         0.042000      1.154446      0.394524
O	      4.08761      8.48764      6.20706        -1.323387     -0.065317     -0.024218
O	      4.11307      6.50437      8.20970        -0.269723      0.725825      0.106840
O	      6.25973      6.32287     10.27725         1.012531     -0.321014     -1.114258
O	      8.33605      8.37705     10.35610         0.236109     -0.875782      1.045995
O	      2.19462      2.25770      1.99698         0.166272     -0.115657     -0.792308
O	      4.15074      4.07636      2.02877         0.362390     -0.901848      0.034418
O	      4.13603      2.11621      3.92717        -0.100459      0.165226     -1.139157
O	      6.21896      4.20674      3.97471        -0.172754     -0.092310     -0.524958
O	      6.22613      2.30557      6.19819         1.283854      0.995163     -0.112013
O	      8.09786      4.20477      6.23839        -0.637949     -0.824422      0.852140
O	      2.02044      4.31320      4.10438        -0.465060      0.868473     -1.027653
O	      4.08380      6.45611      4.09069        -0.900587      0.380125      0.260806
O	      4.29893      4.20588      6.16889         0.783168      0.154410     -0.242424
O	      6.21714      6.14889      6.24364        -0.213711     -0.724341      0.991543
O	      6.25063      4.33214      8.36053         0.510996      0.836902     -0.074005
O	      6.08873      8.31253      8.16412        -0.695865      0.008847      0.329474
