# total energy = -193.62172308 eV
 
CRYSTAL
PRIMVEC
-0.011513 6.393870 6.211110 
6.444938 -0.049926 6.250111 
4.269401 4.261408 -0.006461 
PRIMCOORD
27 1
Ti	      4.28478      8.38878      8.40799         2.492904     -1.345645      1.328216
Ti	      4.42502      4.34245      4.05476         2.187934      0.017919     -0.485041
Ti	      2.20928      4.21855      6.22857         0.272882     -0.055669      3.070609
V	      6.40573      6.39313     12.34239         0.283982      1.310374     -4.059269
V	      8.51097      8.48020     12.35274        -1.893862      0.160872     -3.915511
V	      8.44070      4.30692      8.34173        -3.401116      2.002794      0.749688
V	      4.22247      6.40193      6.22387         0.371240     -1.145969      1.842441
Co	      6.38611      6.37450      4.13043        -0.240121     -1.263995     -0.071328
Cu	      4.35237      2.09139      6.28739         0.364947      0.245002      0.547120
O	      2.33298      2.21321      2.01836        -0.301656      1.434345     -0.640275
O	      4.22337      4.16670      2.12094        -1.431566     -0.322628     -0.728963
O	      4.29040      2.27244      4.08100        -1.014373      0.406278      0.698125
O	      6.26526      4.34921      4.16192        -1.387542      1.688234     -0.061895
O	      6.60131      1.94800      6.29892         1.271016     -2.178264      0.042187
O	      8.62238      4.12766      6.26752         1.880926     -0.878796      1.441668
O	      2.21240      4.11562      4.20857         0.175265     -0.499573     -1.705715
O	      4.26411      6.24233      4.18528         0.794831     -0.095658      1.806570
O	      4.13194      4.33856      6.15194        -0.731253      0.681609     -0.578863
O	      6.21524      6.55625      6.17533        -0.401835      0.568024     -0.670979
O	      6.53046      4.19983      8.30163         3.945193      0.217952      0.070304
O	      8.57447      6.23959      8.33406        -0.267014     -3.101972     -1.285376
O	      2.17865      6.29564      6.19334        -0.752396      1.209897     -0.288111
O	      4.27572      8.55345      6.28714        -0.976220      0.133600     -0.101040
O	      4.22548      6.51696      8.23548         0.010046      1.091535     -3.235682
O	      6.23930      8.54063      8.13989        -1.397160     -0.127283     -2.295614
O	      6.40745      6.35445     10.46987         0.049825     -0.123092      4.438387
O	      8.57669      8.47213     10.44970         0.095123     -0.029890      4.088348
