# total energy = -161.40354643 eV
 
CRYSTAL
PRIMVEC
-0.019237 6.313213 6.230862 
6.250992 0.005340 6.206474 
4.177014 4.201968 -0.005984 
PRIMCOORD
27 1
Sc	      4.18605     10.41380      6.30057         0.567593      0.944730      0.087053
Sc	      2.23187      6.31468      4.15302        -0.506621      0.378373      0.641537
Ti	      6.24202      2.29658      4.12357         0.145755      1.624697      1.471436
Co	      4.11091      2.06566      2.06654        -0.796083      0.348736     -1.487789
Co	      4.17075      0.02492      4.14239        -1.355521     -0.218734      0.180831
Co	      1.98949      4.05618      2.19659        -0.069142     -1.333140      1.015637
Co	      8.27260      6.35788      6.19216        -0.198727      0.150436     -0.255932
Ni	      6.20983      6.27939      8.23208         0.062857      0.102662     -0.475141
Ni	      4.22602      4.25296      8.18847        -0.250203      0.132698     -0.442058
O	      2.19949      2.14768      2.05029         1.155960      1.935973      0.111472
O	      4.07319      4.00719      2.10776        -1.835659     -1.564126      0.315702
O	      4.22674      1.95907      4.15370         0.199770     -0.887203     -0.292767
O	      6.37708      4.14848      4.12305         1.644763     -0.472615     -0.016449
O	      6.09023      2.07472      6.07975        -1.131471     -0.459321     -0.828777
O	      8.32859      4.38170      6.12722         0.333763      0.744439     -0.062331
O	      2.06319      4.27428      4.03282        -0.032496     -0.135078     -2.355264
O	      4.15454      6.31328      4.14173         1.550352     -0.110547      0.028133
O	      4.16483      3.99701      6.22277        -0.222360     -1.163518      0.434878
O	      6.44850      6.31774      6.22154         1.270651      0.248310      0.705581
O	      6.26910      4.23666      8.27027         1.092920      0.899464      0.080535
O	      8.30813      6.33986      8.12272        -0.630272     -0.506926      0.013887
O	      2.03292      6.32686      6.16407        -0.388675     -0.236901     -0.684186
O	      4.14977      8.36931      6.40549         0.139296     -0.182221      2.230367
O	      4.16574      6.37547      8.45095         0.530584      0.290026      1.001804
O	      6.10667      8.38317      8.42000        -0.377326     -1.156172     -0.077678
O	      6.14529      6.38430     10.36001        -0.392026      0.298204     -0.390702
O	      8.20530      8.53060     10.31229        -0.507682      0.327755     -0.949778
