# total energy = -152.10541802 eV
 
CRYSTAL
PRIMVEC
0.016516 6.185676 6.154896 
6.234342 0.007377 6.163894 
4.174788 4.148422 -0.013631 
PRIMCOORD
27 1
Mn	      2.07903      2.04317      4.07889        -0.063819      1.119036      0.201671
Mn	      6.24648      4.13834     10.23837         0.700119     -0.222738      0.072144
Cr	      8.31185      2.08294      6.15388         0.115032     -0.633048     -0.546505
Fe	      0.10152      6.16748      6.17768        -0.063817     -0.463440     -0.334280
Fe	      8.30369      6.22522      6.14302        -0.545236      0.365806     -0.366775
Co	      8.26933      8.34035      8.21441        -1.675286      1.046088      0.263407
Ni	      4.24831      8.22099      8.25318         0.708999     -0.333985      0.207866
Ni	      4.16019      6.15398      2.06172        -0.240686     -0.360865      0.844320
Ni	      6.22878      4.18790      6.13738        -0.155741      0.417121     -0.270646
O	      2.10917      2.06018      2.07192        -0.052803      0.099312     -0.594203
O	      4.16252      4.09015      1.97171         0.180674      0.158718     -1.515433
O	      4.03826      2.10684      4.11203        -1.205940     -0.431749      0.304180
O	      6.21240      4.30938      4.12922         0.275318      0.202070      0.421554
O	      6.25314      2.07319      6.13603         0.218250     -0.162509      0.905272
O	      8.32752      4.17232      6.19966         0.470310     -0.415571     -0.063598
O	      1.93532      4.02065      4.07197        -0.604848     -0.745598     -0.073995
O	      4.30499      6.29346      4.07759         0.632733      0.575591     -0.756851
O	      4.19783      4.09387      6.33214         0.730395     -0.860604      0.701006
O	      6.32253      6.21422      5.98074         0.510874     -0.572119     -0.536484
O	      6.06938      4.10741      8.30056        -0.848170     -0.668726     -0.064668
O	      8.35617      6.38744      8.13570         0.580052      0.934983     -0.729411
O	      2.03707      6.29777      6.12838        -1.053221      1.411138      0.050194
O	      4.10277      8.27837      6.08457        -0.789944      0.926775     -0.007821
O	      4.20166      6.05262      8.19280        -0.153550     -1.218980      0.258447
O	      6.40802      8.24720      8.22430         1.476697      0.140544      0.010793
O	      6.26175      6.02081     10.33125         0.103096     -0.447046      1.252762
O	      8.46856      8.25795     10.25707         0.750513      0.139797      0.367053
