# total energy = -166.83838985 eV
 
CRYSTAL
PRIMVEC
0.032346 6.442622 6.225817 
6.298423 0.030403 6.227969 
4.211578 4.308829 0.007310 
PRIMCOORD
27 1
Sc	      4.10799      2.18779      2.02543        -0.913014      0.647717     -0.422186
Mn	      2.13995      4.32414      6.18624        -0.357348     -0.055360     -0.142909
Cr	      6.35184     10.70846      8.30525        -0.491132      0.839381     -0.092850
Cr	      4.23652      4.33181      4.17245        -0.207029     -0.223772     -0.936621
Cr	      8.41186      6.56073     10.37949        -0.519470      1.314614     -1.316539
Cr	      6.38389      6.38587      8.29620         0.845091     -3.213606      0.403113
Cu	      6.32623      2.15192      4.27618         0.098738     -0.131634      0.728001
Cu	      6.34981      6.42823      4.21623         0.177308     -0.125425     -0.573955
Cu	      4.25702      6.46504      6.20092        -0.083511      0.234214      0.031872
O	      8.42498      4.28467      6.27868         0.012790     -0.013582     -0.038485
O	      6.32415      4.53697      8.28807        -0.017477      2.951873     -0.097317
O	      8.33830      8.49421     10.41086        -0.673052     -1.619246      0.186733
O	      2.08652      1.96730      2.22396         0.523276     -1.043779      1.034012
O	      4.32147      4.25394      2.17739         0.850826     -0.344078      1.651032
O	      4.20114      2.28808      4.13501         0.159192      1.077776      0.070246
O	      6.24656      4.14717      4.07926        -0.589745      0.062699     -0.222772
O	      6.27443      2.18151      6.19903        -0.003133     -0.054898     -0.566975
O	      2.21353      4.46856      4.26367         0.876407      0.120370      0.499438
O	      4.20787      6.37832      4.19065         0.183220     -1.147424      1.437432
O	      4.07120      4.47395      6.16567        -0.017416      0.970258     -1.004336
O	      6.49365      6.68688      6.21638        -0.812243      0.503654      0.146099
O	      8.30712      6.50415      8.42507        -1.253775     -0.112483      1.461371
O	      1.98238      6.26024      6.25042         0.923999     -0.468267     -0.356554
O	      4.41528      8.48375      6.18149         0.502714     -1.352358      0.285110
O	      4.24176      6.50114      8.24218         0.313493      0.453325     -1.436086
O	      6.31920      8.61431      8.16297        -0.425739     -0.355444      0.135524
O	      6.37979      6.57313     10.25850         0.897029      1.085477     -0.862397
