# total energy = -182.92538295 eV
 
CRYSTAL
PRIMVEC
0.049649 6.277717 6.475189 
6.234289 0.077914 6.446014 
4.162791 4.172659 0.045356 
PRIMCOORD
27 1
Sc	      2.13612      2.12615      4.29620        -0.568155      0.866316      0.616260
Sc	      2.17577      4.16754      6.46556         0.194488     -0.879468     -0.213298
Mn	      6.15379      0.09955      6.37472        -0.151831     -0.163434     -0.342086
Mn	      6.32551     10.44564      8.72644         0.141431      0.122417      0.182643
Cr	     10.37791      6.34713      8.63882        -0.175019     -0.212853     -0.344442
Cr	      6.25586      4.21820      6.46054         0.656325      0.434420     -0.368635
Cr	      8.33447      6.39892     10.76429        -0.336078      0.156199      0.186921
Co	      4.22396      8.33462      8.71310         0.091649     -0.255618      1.161722
Co	      4.21651      4.24521      8.64114         0.400018      0.745579      0.369455
O	      2.00874      1.95558      2.17955         0.394849     -0.735978      0.615057
O	      4.26949      4.21756      2.02416         0.635911     -0.117996     -0.517657
O	      4.14445      2.15533      4.20003         0.010212     -0.181430     -2.847443
O	      6.23003      4.23469      4.46404        -0.235562      0.249278      0.002912
O	      6.23258      2.12215      6.57356        -0.147379      0.578883      1.508597
O	      8.39770      4.24550      6.53933        -0.709961      0.079339     -0.002201
O	      2.11608      4.23320      4.38040        -0.053863      1.374678      0.386668
O	      4.12955      6.28083      4.22264        -0.974019     -0.102296     -1.530963
O	      4.24842      4.23309      6.62702         0.998782     -0.150020      1.679935
O	      6.24762      6.27024      6.46970         0.123247     -1.294983     -0.782288
O	      6.17343      4.17963      8.50090        -1.109067     -1.098405     -0.957568
O	      8.37710      6.46009      8.75283         1.053619      0.900815      0.853174
O	      1.97926      6.29084      6.36939        -1.079236     -0.336627      0.038482
O	      4.22778      8.53989      6.61365         0.349386      0.851469      1.563301
O	      4.08593      6.24935      8.60573        -0.844062      0.064489      0.128846
O	      6.40187      8.50553      8.64003        -0.222107      0.727202     -0.338690
O	      6.32301      6.35100     10.96660         1.468579     -0.028867      0.547671
O	      8.36764      8.35598     10.61310         0.087842     -1.593107     -1.596370
