# total energy = -180.33666458 eV
 
CRYSTAL
PRIMVEC
6.010914 0.004913 -0.046600 
1.544594 8.030560 0.278793 
1.486121 2.923466 7.468209 
PRIMCOORD
27 1
Sc	      4.42758      3.03085      7.35914         0.365835      0.053366      0.190415
Sc	      7.55251      9.97449      5.21877        -0.327857     -0.190336     -0.330333
Sc	      1.42171      1.05396      2.45423         1.171032     -0.220574      0.493179
Sc	      7.52182      6.34308      2.62598         0.679432      0.519270     -0.212648
Sc	      4.57874      6.35264      2.83591        -0.635926     -0.306180      0.934077
Sc	      3.10960      3.60618      2.46886        -0.081863     -0.023450     -0.410639
Co	      7.52975      4.71863      5.18692         0.137133     -0.603482      0.428162
Cu	      6.01964      5.32562      0.20389        -0.193738     -0.486334     -0.386001
Ni	      4.50123      0.99955      2.46613        -0.131438      0.020389      0.106410
O	      6.17946      9.15973      6.61694         1.179438      0.150916      0.658664
O	      2.80358      8.96779      6.58827        -0.619925     -0.584250      0.859395
O	      7.59339      8.16544      3.92733        -0.480121      0.685733     -0.999320
O	      4.59748      8.12996      3.92677         0.128194      0.311992     -1.261598
O	      3.08865      7.30321      1.60656         0.380768      0.305535      0.672882
O	      5.98675      7.33690      1.59919        -0.364136     -0.015735      0.295127
O	      7.53746      6.18578      6.16339         0.005685     -0.258731     -0.107492
O	      4.52327      6.46050      6.31135        -0.025130      0.172096     -0.023566
O	      3.00151      5.30739      3.72839        -0.799132     -0.127495     -0.351354
O	      6.10962      5.47455      3.84418         1.097611     -0.352031      0.566939
O	      4.60587      4.65319      1.38510         0.573244      0.576636      0.040672
O	      1.43941      4.63400      1.37325        -0.379155      0.436826      0.070044
O	      2.95809      3.65818      6.17963        -1.548652      1.135506     -1.091514
O	      5.99443      3.66702      6.12043         0.606798     -0.002919     -0.528734
O	      4.48469      2.65151      3.64246         0.202982     -0.553090     -0.583030
O	      1.53934      2.73084      3.72127        -0.056111      0.109273     -0.293657
O	      5.92999      1.80173      1.29053        -1.167247      0.008042      0.350958
O	      2.96025      1.86405      1.23088         0.282280     -0.760974      0.912963
