# total energy = -169.61165210 eV
 
CRYSTAL
PRIMVEC
6.089077 -0.063586 0.072108 
1.412255 7.803970 0.068111 
1.574123 2.405932 7.329629 
PRIMCOORD
27 1
Sc	      3.02895     10.17420      7.35834         0.445013      0.507982      0.772010
Sc	      6.05555     10.12150      7.36643        -0.375973     -0.169720      0.480433
Sc	      4.59622      2.64876      0.11843         0.302282     -0.407237      0.138782
Sc	      2.85105      5.10485      0.07427        -0.337600      0.021183      1.057141
Sc	      5.96973      8.56378      2.70716        -0.076437      0.613417     -0.845697
Co	      6.20526      3.42229      2.53690         0.664851      0.461526     -1.313748
Cu	      6.06002      6.79335      4.95243         0.502816      0.155559     -0.183279
Cu	      4.48821      4.18428      4.87010        -0.317846     -0.120024      0.106910
Ni	      1.53418      4.21238      4.85854         0.019574      0.005610     -0.161202
O	      3.13117      1.60080      1.22601         1.301514     -0.446159     -0.302964
O	      6.07071      1.68545      1.30755        -1.243043      0.514435      0.470541
O	      1.34610      4.27331      1.30948        -1.548463     -1.068892      1.668539
O	      4.46326      4.29479      1.24475         0.210965     -0.017948      0.232516
O	      5.99839      6.99723      1.26881        -0.023364      1.290318     -0.028791
O	      2.94313      6.89443      1.18467        -0.026361     -0.128107     -1.797984
O	      1.47554      2.69363      3.70945        -0.659259      1.364173     -0.112533
O	      4.71337      2.64889      3.60791         1.389387      1.293450     -0.457498
O	      5.99892      5.03240      3.82973        -0.085250     -0.988534      0.688092
O	      2.97938      4.97336      3.85859        -0.105665     -0.426524      0.486363
O	      4.56020      7.65540      3.81145         0.619023     -0.943021      1.454529
O	      7.45710      7.63217      3.79292        -0.972924     -0.813306      1.056711
O	      6.20353      3.27937      6.14354         0.087647      0.717679     -0.017098
O	      3.13734      3.29180      6.10634         0.237028      0.252522     -0.618312
O	      4.64049      5.80629      6.14705         1.229552     -0.039570     -1.124223
O	      7.53109      5.75085      6.01674        -0.755989     -0.145181     -1.283713
O	      3.02024      8.49106      6.25605         0.255843     -0.296204     -0.194972
O	      5.99880      8.39556      6.21801        -0.737322     -1.187426     -0.170553
