# total energy = -128.16143996 eV
 
CRYSTAL
PRIMVEC
-0.024327 6.213177 6.283965 
6.158154 0.046843 6.212958 
4.130513 4.119812 0.006126 
PRIMCOORD
27 1
Fe	      4.12315      2.10819      6.20137         0.012673      0.030439     -0.012942
Co	      2.07134      4.12072      2.13373         0.286719     -0.098300      0.140390
Co	      6.15479      6.18907      4.13579        -0.296246      0.120576     -0.467620
Cu	      4.07979      8.26625      8.32886        -0.429142      0.228940      0.064380
Cu	      2.01203      4.25318      6.28717         0.312279      0.647875     -0.839114
Cu	      6.10764      6.20684      8.43025         0.199607     -0.387504      0.414471
Ni	      6.22074      8.30678     10.42424         0.395917      0.360949      0.153545
Ni	      4.12022      6.16487      2.11798         0.122062     -0.268710      0.345754
Ni	      6.13467      4.17810      6.21532        -0.213760      0.185890     -0.112594
O	      2.05716      6.14117      6.28779        -0.016615     -0.703373     -0.184488
O	      4.19648      8.29178      6.34229         0.980738      0.147333      0.964724
O	      4.18347      6.29621      8.32022         0.626146      0.810642      0.043946
O	      6.07442      8.22385      8.38876        -0.941622     -1.095044      0.125917
O	      6.14816      6.32622     10.36420         0.015536      0.258125     -0.159718
O	      8.14981      8.31951     10.40176        -0.287745      0.004416      0.029054
O	      2.07103      2.16553      2.19550         0.192886      0.603987      0.685814
O	      3.91605      4.11042      2.09894        -1.085053     -0.310628      0.095066
O	      4.01710      2.07643      4.17270        -0.351395     -0.073840     -0.198703
O	      6.17524      4.27867      4.19156        -0.085299      0.559719      1.035725
O	      6.06790      2.14972      6.22334        -1.044171      0.700820      0.193631
O	      8.17839      4.25393      6.42315        -0.656833      0.887479      0.426131
O	      2.04987      3.96232      4.02337         0.042238     -1.182664     -0.354752
O	      4.32109      6.19733      4.09909         1.381404     -0.147045     -0.603842
O	      4.03963      4.03831      6.30153        -0.223635     -1.180093     -0.149359
O	      6.23115      6.26007      6.09363         0.742150      0.336755     -0.008027
O	      6.30516      4.20563      8.28819         0.633044     -0.020531     -0.923293
O	      8.20093      6.07835      8.29298        -0.311885     -0.416213     -0.704097
