# total energy = -102.29918209 eV
 
CRYSTAL
PRIMVEC
0.000053 2.087841 2.087795 
8.460897 -2.136135 2.136421 
-0.018129 4.236167 -4.236150 
PRIMCOORD
16 1
Li	      0.16872      2.09917      2.07360         0.000711      0.016980     -0.017846
Li	      2.34514      1.93692      0.14723         0.034217      0.004499     -0.005619
Li	      4.06291      4.32101     -0.14956        -0.018017     -0.039582      0.039769
Li	      4.08406      1.94400      2.22763        -0.004523      0.022448     -0.021924
Ti	      0.15677      4.18782     -0.01489         0.513881     -0.048126      0.046740
Ti	      6.12530      2.12596     -0.04185        -0.819245      0.046797     -0.045058
Ni	      6.20658     -0.02521      2.11017         0.049050     -0.022804      0.021815
Ni	      2.23482      4.31984     -2.23552        -0.002394     -0.088345      0.088386
O	      4.36815      2.09940     -0.01457         0.783003      0.009090     -0.009093
O	      4.26145      4.18525     -2.10156        -0.059176      0.003863     -0.001688
O	      6.38238      2.17296      1.99960         0.027478      0.094873     -0.094328
O	      6.41393      4.10822      0.06420         0.008565     -0.123450      0.122065
O	      8.27676      0.08721      1.99780         0.081302      0.092390     -0.091597
O	      1.96668      4.22125     -0.04869        -0.511337     -0.046994      0.047731
O	      8.37927      1.96198      0.12295        -0.071273     -0.057679      0.056703
O	      2.08470      2.06120      2.11078        -0.012243      0.136039     -0.136057
