# total energy = -169.27324162 eV
 
CRYSTAL
PRIMVEC
6.154921 -0.120530 0.143840 
1.355046 7.771827 0.035784 
1.655402 2.338611 7.365319 
PRIMCOORD
27 1
Sc	      3.11186     10.09019      7.35780         0.392234      0.250948      0.884835
Sc	      6.15710      9.98114      7.42736        -0.269676     -0.301833      0.639914
Sc	      4.65301      2.59549      0.14660         0.136558     -0.176015     -0.081487
Sc	      2.84734      5.06625      0.08544         0.117348      0.025815      0.426911
Sc	      5.99711      8.49294      2.73199        -0.114758      0.815654     -0.712690
Co	      4.41604      4.11599      4.84033        -0.825550      0.573914     -0.489295
Cu	      6.17452      3.36997      2.58717         0.426092      0.151911     -0.827293
Cu	      7.63177      4.04440      4.98076         0.183222      0.234431      0.026364
Ni	      6.09071      6.65484      4.96035         0.335683      0.525200     -0.197504
O	      3.19986      1.58498      1.31201         1.365034     -0.326874     -0.378288
O	      6.11733      1.64889      1.35707        -1.179369      0.486797      0.316599
O	      1.40425      4.23687      1.24485        -0.991017     -0.526957      0.800203
O	      4.49306      4.24350      1.25652        -0.040564      0.126667      0.049182
O	      6.03279      6.93529      1.30251         0.050957      1.299214      0.028669
O	      2.93069      6.86254      1.19992        -0.153364     -0.219991     -1.842508
O	      1.40923      2.69030      3.68737        -0.342875      0.834455      0.059014
O	      4.68469      2.59034      3.77732         0.417036      1.353365      0.546265
O	      5.88153      5.00833      3.70884        -0.963388     -1.250769      1.150431
O	      2.92707      4.88892      3.91519         1.316118     -1.262176      1.279514
O	      4.60905      7.56338      3.85555         0.259664     -0.721261      1.085563
O	      7.44263      7.51590      3.87081        -0.411821     -0.177494      0.354127
O	      6.39494      3.16010      6.24463        -0.059094      0.782170     -0.331459
O	      3.34188      3.20480      6.26356         0.563566      0.517306     -1.456082
O	      4.79097      5.68809      6.12017         0.240575     -0.896821     -0.546779
O	      7.53834      5.66569      5.97286        -0.310164     -0.714583     -0.556029
O	      3.10222      8.39465      6.26024         0.458231     -0.307305      0.082562
O	      6.08487      8.29073      6.28078        -0.600680     -1.095766     -0.310737
