# total energy = -194.44657050 eV
 
CRYSTAL
PRIMVEC
0.038308 6.317025 6.292904 
6.285532 0.029212 6.302132 
4.200096 4.227243 0.009819 
PRIMCOORD
27 1
Ti	      2.30303      8.37951      6.32171         0.059280     -0.217342      2.851909
Ti	      6.14098      2.20282      4.15035        -3.112871      1.032284     -1.269998
Ti	      6.26332      2.04235      8.25632        -0.123915     -2.222843     -1.875887
Ti	      6.35217      6.25415      4.35430         1.149632     -0.779454      2.796529
V	      6.30124      4.26623     10.51216         2.034123      0.377727      1.362864
V	      8.38281      4.25289      8.29384         2.297335      0.417662     -1.913105
Cr	      2.13558      6.28760      4.22743         0.202338     -0.852575      1.421979
Co	      4.23916      6.35634     10.46291        -0.355348      1.613974     -0.839119
Ni	      4.19445      4.32210      8.28407        -0.808843      0.081934     -1.511473
O	      2.03660      2.11780      2.05338        -0.758373      1.673493     -0.560108
O	      4.11501      4.37272      2.04713        -2.892657      1.084084      0.159944
O	      4.18654      2.16320      4.20539         0.365200     -1.362002      0.095905
O	      6.28789      4.23570      4.23041         1.060322     -0.091521     -0.040674
O	      6.33435      2.14964      6.32564         1.285247     -0.027861      0.331354
O	      8.40033      4.08310      6.31704        -0.148325     -0.906684      0.591702
O	      2.10230      4.23538      4.06319        -2.357168     -0.048082     -0.583703
O	      4.24145      6.34726      4.05560        -0.177927      2.208680     -0.195942
O	      4.16532      4.25169      6.34893         0.013301      0.112608      0.414845
O	      6.31052      6.36580      6.13585        -0.107781     -0.340632     -2.434863
O	      6.37124      4.12468      8.39747         0.163181      0.191728      2.235123
O	      8.48507      6.34300      8.47173         0.662886     -0.540489      0.821979
O	      2.14795      6.45179      6.21209         0.247208      0.490665     -1.657157
O	      4.17242      8.44424      6.32020        -1.229262     -0.223201     -3.843095
O	      4.26444      6.29007      8.48794        -0.087634     -0.684635      1.896771
O	      6.33406      8.47571      8.60118         1.062762      0.221104      2.037618
O	      6.41420      6.44147     10.53941         0.182403     -1.605561     -0.224499
O	      8.36835      8.35316     10.57419         1.374884      0.396939     -0.068900
