# total energy = -180.91491673 eV
 
CRYSTAL
PRIMVEC
0.029098 6.388817 6.182214 
6.470715 0.028169 6.183084 
4.323512 4.269099 0.009542 
PRIMCOORD
27 1
Sc	      6.51073      6.46474      8.35044        -0.766697      0.683829      1.141927
Mn	      8.66318      8.60024     12.28044         0.507132      0.782119      0.278324
Mn	      4.33304      2.11724      6.05225         0.263518     -0.525458     -1.874954
Mn	      6.50003      4.31113      6.05227         0.280674      0.099159     -0.984635
V	      4.37804      6.31075      2.16883         2.602809     -3.593688      1.444073
V	      4.33136      6.51531      6.15631        -0.261402      2.750358     -0.482088
V	      8.65520      8.55213      8.31091        -1.549878      0.726260      1.098817
Fe	      6.42653      4.22536      2.21250        -0.815706     -0.517836      0.811362
Cu	      2.07137      6.27359      4.17789        -0.715149     -0.768100      0.425488
O	      2.16464      4.36866      4.08816        -0.212159      1.407136      0.072308
O	      2.00099      2.03576      2.08588        -2.467731     -0.174540     -1.005518
O	      4.43748      4.37287      2.06035         0.226362      3.516992      0.237152
O	      4.33521      2.17016      4.21056         0.215313     -0.106967      0.922812
O	      6.54155      4.23105      4.12308        -0.095737     -0.005527      0.906230
O	      6.44942      2.12903      6.38247        -0.101688      1.754969     -0.156145
O	      8.45356      4.33329      6.15985        -1.431539     -0.310009     -0.173914
O	      4.24943      6.41820      4.02377        -1.057288     -0.082621     -0.128104
O	      4.47216      4.40815      6.19122         0.951918     -0.286211      1.007811
O	      6.39264      6.45529      6.18874        -0.677139     -1.858301      0.036532
O	      6.37165      4.23169      8.11200        -1.308917     -0.202498     -0.700716
O	      8.68193      6.46792      8.02340         0.373048      1.385228      0.205546
O	      2.39134      6.35662      6.36744         1.871777      1.183543     -0.474490
O	      4.32411      8.29842      6.20444        -0.610460     -2.849210     -0.284013
O	      4.36473      6.38071      8.18583         0.252855     -1.842636     -1.212500
O	      6.63271      8.57292      8.25626         2.861385     -0.059372     -0.116254
O	      6.50583      6.36280     10.32494         1.719774     -0.146645     -0.106766
O	      8.64674      8.31923     10.23500        -0.055078     -0.959974     -0.888285
