# total energy = -150.03023195 eV
 
CRYSTAL
PRIMVEC
-0.000944 6.241421 6.246981 
6.231062 0.006667 6.239723 
4.159022 4.161236 -0.000759 
PRIMCOORD
27 1
Sc	      2.12374      4.21173      2.11639         0.443854      0.089805     -0.429075
V	      8.33237      8.38092     12.39584         0.326246      0.823443     -0.588911
Cr	      2.03612      6.24589      4.22524        -0.635824     -0.797076      1.022876
Co	      4.29692      8.21506      8.46159         0.264566     -0.118148     -0.028204
Co	      4.13276      4.18807      8.28088        -0.719053      0.321581     -1.438185
Ni	      6.23425      4.13254      2.15689        -0.156626     -0.189346      0.068138
Ni	      4.15885      6.23556      2.11113         0.022047     -0.456237     -0.150662
Ni	      6.17578      4.20836      6.16320         0.151117     -0.226616     -0.094496
Ni	      0.02872      4.17877      4.19783         0.265750      0.147794      0.793514
O	      6.25294      6.06181      6.23035        -0.093828     -0.264819     -0.294360
O	      2.08348      2.08567      1.91551         0.039167     -0.281322     -0.172596
O	      4.15435      4.16149      2.03823         0.371139     -0.083611      0.255156
O	      4.16005      2.06746      3.97807         0.344521     -0.301868     -1.502370
O	      6.19575      4.16186      4.22015        -0.112291      0.254093     -0.568612
O	      6.42231      2.20784      6.27498         0.476036      0.596126      0.777446
O	      8.31626      4.02034      6.21990        -1.249746     -0.916170      0.442183
O	      2.06007      4.27194      4.18574        -1.057906      1.221806     -0.538108
O	      3.97203      6.31595      4.14843        -1.014726      0.655931     -0.700476
O	      4.20632      4.12160      6.43132         0.519745      0.178715      2.026969
O	      6.12405      4.13208      8.31396        -0.301714     -0.519408      0.466890
O	      8.32896      6.32948      8.45242         0.491477      0.672950      0.480379
O	      2.04004      6.44377      6.16141        -0.023832      0.673522     -0.187550
O	      3.96086      8.32085      6.34017        -0.785504     -0.129456      0.394413
O	      4.08999      6.14972      8.33219        -0.466327     -0.668475      0.067886
O	      6.30216      8.35150      8.25923         0.500162      0.603024      0.514140
O	      6.41892      6.21434     10.41736         1.698833     -0.607105     -0.122237
O	      8.32326      8.29956     10.48075         0.702718     -0.679132     -0.494151
