# total energy = -146.41728796 eV
 
CRYSTAL
PRIMVEC
-0.050839 6.134119 6.201819 
6.144013 -0.035149 6.185881 
4.080214 4.062600 -0.007233 
PRIMCOORD
27 1
Ti	      8.14034      8.12775      8.44050         0.237408      0.122026      3.484946
Fe	      4.10795      4.06431      4.05151         0.313191      0.276821     -1.221403
Co	      2.04510      3.89685      2.07771         0.531586     -2.194755     -0.042853
Co	      6.08801      8.13125      6.18465        -1.841733      0.753369      0.209492
Co	      4.02977      6.12580      6.17748        -1.606267      1.808652     -0.573861
Co	      6.09289      6.11784      8.29304        -0.586347     -0.143698      2.267140
Cu	      6.12663      6.15390     12.30870         0.458145     -0.523221      0.147096
Ni	      4.10296      2.00988      6.15339         0.314559     -0.432114     -0.432721
Ni	      6.16959      4.00445      6.13787         0.743388     -0.680569     -0.533271
O	      2.01384      2.13151      2.04063        -0.046612      3.402875      0.073951
O	      4.03005      4.10206      2.07657        -2.240565     -0.106104     -0.308168
O	      4.05783      2.20151      4.16040         0.136598      0.798590      0.628959
O	      5.97889      4.07013      4.16105        -0.985705     -0.093314      0.538490
O	      6.10950      1.99275      6.18696        -0.502710      0.067453     -0.112981
O	      8.21286      4.07029      6.22081         0.123903      0.292617      1.755727
O	      2.17394      4.07805      4.17930         0.920300     -0.353349     -0.209771
O	      4.07197      5.97892      4.29011         0.249721     -0.608929      1.372050
O	      3.98410      4.15038      6.23021        -0.209415     -0.680350     -0.320944
O	      6.00852      6.14746      6.32736         0.842431      0.362649      0.803281
O	      6.07552      4.13960      8.18261         0.990186      0.879618     -0.711843
O	      8.03239      6.12674      8.19367        -0.889580     -0.833636     -0.618281
O	      2.04350      5.97489      6.24711         0.054925     -1.360716     -0.307695
O	      4.20252      8.06939      6.16724         1.714517      0.249388     -0.083529
O	      4.12494      6.04049      8.14930         1.113431     -0.444227     -1.116188
O	      6.16500      8.03366      8.13371         0.318504     -0.832799     -1.150632
O	      6.05344      6.06471     10.22603         0.031795      0.164559     -1.991824
O	      8.14024      8.13671     10.21381        -0.185655      0.109165     -1.545167
