# total energy = -187.79713134 eV
 
CRYSTAL
PRIMVEC
-0.011374 6.256774 6.305074 
6.308547 -0.024048 6.318072 
4.180803 4.155135 0.008546 
PRIMCOORD
27 1
Ti	      6.23367      6.16857      4.36021        -1.071145     -0.993463      1.605567
Mn	      8.39377      4.17867      8.37786        -0.360911      0.458570     -0.005405
V	      8.31131      8.29806     12.55754        -1.524417     -1.419184     -3.031120
Cr	      4.21948      8.31188      8.37064         1.225257     -0.782991     -0.508486
Cr	      4.17511      4.18633      4.24543         0.416763      1.144744      1.687534
Cr	      4.29619      2.07444      6.29350         0.995916      0.634272     -0.091875
Cr	     10.45767      8.34932     10.56205        -0.607363      0.339012      0.329809
Cr	      6.27328      6.24887      8.41929        -0.457129      0.525392      0.453289
Ni	      2.13306      6.20028      8.39365         0.400414     -0.626645     -0.046269
O	      2.17952      2.03276      2.15946         0.875568      1.177536     -0.723289
O	      4.24084      4.07714      2.23020        -1.192781     -1.020351      0.482135
O	      4.09879      2.14478      4.19282        -0.448235      0.853079     -0.352017
O	      6.20259      4.25995      4.17759        -1.109024      0.536101     -0.987459
O	      6.31191      2.05704      6.30456         0.849057     -0.013565      0.038995
O	      8.37188      4.03295      6.28377         0.032643      0.035362      2.215826
O	      2.09364      4.05215      4.26274        -0.131480     -0.178516     -2.089936
O	      4.31203      6.24183      4.24358         1.161052      0.293389      0.054160
O	      4.20791      4.05355      6.20156         0.034784     -1.547125     -1.415002
O	      6.40415      6.18297      6.26267         1.246304      0.060801      0.260824
O	      6.25446      4.23156      8.55976         2.115894      1.090516      0.714167
O	      8.30853      6.27602      8.27301        -1.074850     -2.216545     -0.860136
O	      2.06302      6.46369      6.35851        -0.187123      2.199763      0.765277
O	      4.03798      8.36853      6.32817        -1.573939      0.060204      0.475647
O	      4.23805      6.31549      8.39711         0.730487      1.544072      0.056773
O	      6.19795      8.28346      8.39264        -1.432126     -0.690163     -0.127518
O	      6.32674      6.15322     10.40299        -0.088594     -1.557154     -1.457645
O	      8.47130      8.29474     10.65101         1.174977      0.092887      2.556153
