# total energy = -102.69755515 eV
 
CRYSTAL
PRIMVEC
0.000032 2.093951 2.093641 
4.154025 -4.255471 4.254933 
4.194301 4.275561 -4.274882 
PRIMCOORD
16 1
Li	      4.22972     -4.08220      4.08179         0.034308     -0.009058      0.009820
Li	      1.82718      2.11076     -0.01907         0.014036     -0.002090      0.003075
Li	      4.27086      2.14290     -2.14016        -0.024785      0.014498     -0.014740
Li	      4.12031     -0.21655      4.40377         0.006492      0.007107     -0.006503
Ti	      4.05620      0.03519     -0.03465        -0.335643      0.038006     -0.037932
Ti	      6.45347     -0.04565      2.14242         0.515832     -0.142588      0.139728
Ni	      1.99951     -0.06669      2.16118        -0.047219      0.040232     -0.039637
Ni	      6.40298      2.20316     -0.10847        -0.113314     -0.031549      0.033551
O	      4.23278      2.00896      0.08576        -0.061599     -0.114093      0.114194
O	      4.22954      0.13287      1.96231         0.081392      0.085479     -0.085835
O	      6.18932     -0.07721      0.07868        -0.025941     -0.080646      0.079628
O	      4.13556     -2.14854      4.24210         0.156370      0.003127     -0.002096
O	      6.25920     -1.97735      1.97975         0.014189      0.140901     -0.143669
O	      4.10503      4.23721     -2.14072        -0.579254     -0.010162      0.011658
O	      2.19691     -0.04770      0.04858         0.354382      0.088462     -0.088392
O	      6.22580      2.16781     -2.16664         0.010753     -0.027626      0.027150
