# total energy = -164.15490739 eV
 
CRYSTAL
PRIMVEC
-0.036998 6.396306 6.270011 
6.270723 -0.051433 6.283840 
4.158234 4.250868 -0.011461 
PRIMCOORD
27 1
V	      2.10645      6.33389      8.32557         1.689880     -1.357324     -0.450310
Cr	      6.26130      0.00118      6.25663        -0.021084      0.610124     -1.139593
Cr	      8.33425     10.56481     10.47527         0.815587     -1.289076     -0.360289
Cr	      6.24040      8.46229      6.25814         0.649333     -0.883987     -0.633697
Fe	      4.13346      8.48630      8.34098         0.532282     -0.496187     -0.131456
Fe	      6.15101      6.40941      4.21190        -1.236276      0.554672      0.292952
Fe	      4.14403      4.30436      4.22340        -0.412699      0.902114      0.428323
Cu	      8.27613      2.11582      6.22130        -0.174372      0.142909     -0.371464
Ni	      8.35869      6.37737      6.37700        -0.119969      0.324448      0.590075
O	      6.24399      4.22649      8.38193        -0.050404      0.032570     -0.053818
O	      2.14319      1.95034      2.03861         0.219456     -0.952126     -0.143655
O	      4.29412      4.15159      2.09667         0.804064     -0.294410     -0.101027
O	      4.09951      2.08857      4.10656        -0.859291     -0.233168      0.081265
O	      6.25184      4.29410      4.04491         0.220422      0.530601     -1.183392
O	      6.28759      1.96614      6.29573         0.211273     -1.576548      0.221443
O	      8.43095      4.32490      6.19556         0.665763     -0.298330     -0.602747
O	      2.15109      4.15617      4.24319         0.442933     -0.762277      0.806309
O	      4.21774      6.24803      4.17257         1.440106     -0.857260      0.102881
O	      4.09742      4.18601      6.18364        -0.999003     -0.892349     -0.707711
O	      6.25523      6.46009      6.18927         0.752874      1.082179     -0.799072
O	      8.32248      6.35655      8.32845         0.059562      0.037074     -0.467015
O	      2.00849      6.25221      6.39627        -0.798251      0.560935      1.387428
O	      4.16678      8.60113      6.35944        -0.304775      1.400849      0.546701
O	      4.01705      6.43325      8.43775        -1.732445      0.312099      0.742915
O	      6.16420      8.62203      8.28624        -0.410800      1.732392     -0.487008
O	      6.13607      6.36153     10.56560        -1.431788     -0.066527      1.592654
O	      8.27653      8.62050     10.55543         0.047623      1.736603      0.839311
