# total energy = -202.65776616 eV
 
CRYSTAL
PRIMVEC
-0.017806 6.317684 6.309553 
6.354227 -0.048964 6.340798 
4.223843 4.220482 -0.020483 
PRIMCOORD
27 1
Ti	      4.29822     10.32369      6.19962         0.982117     -0.698582      0.380810
Ti	      4.23257      6.35547      2.27842         0.625330     -1.697952      2.907533
Ti	      6.32547      4.28010      6.21938        -1.019149      2.904137     -1.683586
Ti	      8.45330      8.47718      8.52324        -1.582906      1.766636     -0.813080
Mn	      2.16319      0.04389      2.11771         1.479750      0.193764     -0.454503
V	      6.31023      8.35294     10.52480        -0.516550     -1.004960     -1.304281
V	      2.09925      4.21287      2.19861         1.425575     -0.714779      3.243468
Cr	      4.21901      2.06986      6.29401        -1.862020      0.971732     -1.472371
Co	      6.30936      4.21433     10.54008         0.445904     -0.910546      1.560976
O	      2.01711      2.19552      2.09439        -1.698426      0.273340      0.158084
O	      4.16542      4.32970      1.94900        -0.005511      1.246495     -0.470751
O	      4.35159      2.07477      4.31208         2.769127     -0.043253      1.509553
O	      6.36096      4.09027      4.30842        -0.151577     -2.453149      0.137420
O	      6.26325      2.09222      6.34722        -0.358551     -0.057965     -1.567332
O	      8.42508      4.24407      6.39665        -0.114627      1.040552      1.397006
O	      2.11958      4.21999      4.11211        -1.357411      0.269487     -3.860488
O	      4.20047      6.28252      4.11389        -0.008386      1.553528     -3.020500
O	      4.33879      4.09060      6.41358         1.459794     -1.639721      1.277002
O	      6.41889      6.16715      6.26248         1.517343     -2.046557      0.033985
O	      6.33723      4.11879      8.29810         0.242586     -0.842762      0.788494
O	      8.50438      6.29024      8.34274         1.263995     -0.268424     -0.923400
O	      1.92997      6.30778      6.29583        -1.537636     -0.394746      1.070392
O	      4.17749      8.49964      6.34577         0.200656      1.304163     -1.407086
O	      4.26957      6.14630      8.41563        -2.042579     -1.706011      0.200237
O	      6.46441      8.38036      8.45106         0.982014      1.420078      2.822023
O	      6.30139      6.36210     10.63664        -0.116887      1.569406      0.709204
O	      8.35727      8.37459     10.46213        -1.021976     -0.033910     -1.218808
