# total energy = -176.71169094 eV
 
CRYSTAL
PRIMVEC
-0.004694 6.191752 6.334410 
6.333566 -0.031803 6.360933 
4.225377 4.148804 -0.023998 
PRIMCOORD
27 1
Ti	      4.20573      2.21034      2.09043        -0.443048      0.596426     -1.102236
Ti	      6.16220      6.29860      4.26301        -1.667154     -0.505311      0.228200
V	      6.32356      2.12355      4.20678         0.478657      1.531932     -0.283093
Cr	      4.23777      2.03392      6.34879        -0.526750      1.642852      1.397998
Fe	      8.43392      8.18992     12.62353         0.397399     -0.249981      1.247316
Fe	      8.45580     10.27551     10.54354        -0.262204     -0.250745     -0.161907
Fe	      4.29195      4.12996      8.38609         0.461929     -0.640796     -0.580538
Fe	      6.35705      6.11351      8.40681         0.567421     -1.026392     -0.897222
Cu	      0.03850      6.18488      6.33865         0.793249     -0.486069      0.814678
O	      2.25395      2.02446      2.23485         0.932538      0.251790      0.101753
O	      4.25200      4.00702      2.23772        -0.077789     -0.559396     -0.927729
O	      4.23616      2.07866      4.24692         0.938629     -1.259114      0.077840
O	      6.42680      4.12543      4.23202         1.082017     -2.391697     -0.046689
O	      6.33349      2.02005      6.26844        -0.072433     -1.339876     -1.225527
O	      8.58188      4.09796      6.36650         1.025171      0.274183     -1.732100
O	      2.07275      3.98995      4.24867        -0.269584     -0.523689      0.079268
O	      4.34877      6.17714      4.23481         0.698640      0.426297      0.066068
O	      4.19864      4.02587      6.43967         0.337348     -1.709808      0.554629
O	      6.45988      6.15007      6.24308         1.038197      0.123255     -0.307275
O	      6.24976      4.16208      8.46423        -0.899212      1.616878     -0.332212
O	      8.37855      6.23225      8.32315        -1.252361      0.854443     -1.145773
O	      2.00675      6.29742      6.33572        -1.526928      0.133379      0.226664
O	      4.10437      8.29915      6.48900        -0.366824      1.454700      0.471438
O	      4.31406      6.17784      8.37707         0.967385     -0.174007      1.641226
O	      6.26850      8.22357      8.47878         0.273367     -1.223628      1.445412
O	      6.28628      6.28117     10.39913        -1.062080      1.880184      0.718579
O	      8.37385      8.19923     10.56811        -1.565581      1.554190     -0.328769
