# total energy = -197.21437870 eV
 
CRYSTAL
PRIMVEC
0.091019 6.474199 6.200788 
6.533695 0.076529 6.215330 
4.395050 4.365438 0.011403 
PRIMCOORD
27 1
Sc	      4.34234      4.31514      4.24615         0.179703     -0.077764      0.252077
Ti	      2.36355      6.52650      8.15181        -0.055498      2.292379     -0.948643
Ti	      6.58593      2.37104      8.20653         2.089923      0.499456      0.118700
Mn	      8.70609      4.48819      4.20394        -0.228819      0.831803      0.328609
V	      4.43477     10.65204      6.26381        -0.336164     -4.919728      0.281495
V	      6.54157      2.23014      4.20277        -1.728776      0.463689      1.090975
V	      2.26014      6.48030      4.14547         1.529774     -1.337904      1.426355
V	      4.39509      4.37520      8.15607         1.003080      0.178926     -4.172006
Cu	      8.59317      4.36104      8.28205        -0.095097     -0.321027     -0.085017
O	      2.04503      1.97783      2.10737        -1.257945     -0.140322     -0.041079
O	      4.57683      4.45133      2.03365        -0.596212      0.413921     -0.724722
O	      4.54372      2.24756      4.09947         2.476678     -0.977814      0.188360
O	      6.52090      4.29166      4.06166         0.561030     -1.830680     -0.367038
O	      6.60785      2.07903      6.28354        -0.266969     -0.255642     -1.831339
O	      8.95920      4.40323      6.27201         0.978722      0.310010     -0.359165
O	      2.27393      4.47924      4.11586         0.051850      2.602376     -1.636307
O	      4.32434      6.48042      4.02001        -2.333207     -1.017152     -0.804668
O	      4.41407      4.38623      6.24248        -0.246328     -0.046911      4.700630
O	      6.61091      6.55462      6.20453        -0.000649      0.068292     -0.042549
O	      6.44694      4.27033      8.27812        -1.758884     -0.652543     -0.128002
O	      8.97051      6.68868      8.31103        -0.502900      1.086109      1.047873
O	      2.13623      6.51381      6.23956        -0.990014     -0.326504     -0.905545
O	      4.47052      8.89054      6.24222         0.186004      4.399461      0.102171
O	      4.27752      6.50426      8.23681        -0.176663     -2.467340      1.746653
O	      6.73755      8.84532      8.34030         2.318501      0.048173      1.446762
O	      6.69747      6.61578     10.47124         0.111048      1.419880      0.796950
O	      8.69204      8.64040     10.29108        -0.912187     -0.243145     -1.481529
