# total energy = -103.67765775 eV
 
CRYSTAL
PRIMVEC
-2.080507 4.109575 -2.083917 
2.094129 4.123376 2.096547 
6.301041 0.007400 -2.129434 
PRIMCOORD
16 1
Li	      2.12241      4.12774      2.07821         0.004350     -0.013407     -0.023824
Li	      2.17688      2.05875     -0.07360         0.008437      0.006601     -0.020148
Li	      4.13218      4.12311      0.04802        -0.017447      0.004266      0.030088
Li	      2.11453      4.11770     -2.11305        -0.006224     -0.004179      0.021827
Ti	      0.11645      4.11770     -0.09456         0.215851      0.005303     -0.208573
Ti	      4.12987      6.17714     -2.02914        -0.130346      0.005495      0.159668
Ni	      4.17095      2.06408     -2.07881        -0.043116     -0.005237      0.026178
Ni	      2.09819      6.18010      0.01439         0.015762     -0.000980     -0.028729
O	      2.21933      6.16706     -2.10256         0.197906      0.004393      0.032625
O	      1.99908      4.15158      0.00748        -0.251207     -0.143021     -0.014449
O	      4.20816      6.19057     -0.11827        -0.037117     -0.000779     -0.178069
O	      4.30125      4.21757     -2.13112         0.027461      0.157569      0.000455
O	      6.25836      6.10369     -2.06292        -0.106094     -0.093521     -0.104486
O	      0.01188      4.08396     -1.97914         0.006393      0.134493      0.227464
O	      6.31323      4.03112     -0.11597         0.007288     -0.155489     -0.025015
O	      6.25075      2.14421     -2.06954         0.108103      0.098492      0.104987
