# total energy = -179.80976667 eV
 
CRYSTAL
PRIMVEC
0.026016 6.259872 6.416177 
6.333510 0.010651 6.432685 
4.234538 4.196397 -0.005205 
PRIMCOORD
27 1
Sc	      4.14143      2.09346      2.14013         0.411439      0.038233     -0.366031
Sc	      6.37178      2.20680      4.26832        -0.273816      0.389421      0.197881
V	      0.08642      6.25017      6.44020         1.757089     -0.832152      2.476876
Cr	      8.48913     10.42484     10.73023        -1.676668     -0.581531     -0.260712
Cr	      8.42585      4.19566      8.59493        -0.910784     -1.540266      1.040943
Cr	      2.17686      6.25532      4.29109         1.999366     -0.059947      0.110894
Fe	      4.24639      6.04090      6.36160         0.183804     -0.109304      0.524818
Fe	      6.37348      6.22616      8.45365        -0.591993      0.429399     -0.332523
Cu	      4.18215      2.18345      6.40908        -0.048562      0.902123     -0.422916
O	      2.11024      2.18385      2.11769        -0.339250      1.902945     -0.005167
O	      4.18733      4.18700      1.99508        -1.324701     -0.309917     -2.324616
O	      4.25780      2.00039      4.21456         0.457373     -1.222666      0.792008
O	      6.49839      4.20020      4.29955         1.918827      0.496302     -0.113628
O	      6.30988      1.90334      6.39395        -0.875712     -1.107474     -0.620924
O	      8.56104      4.33542      6.38201         1.200906      0.563349      0.036351
O	      2.15848      4.28783      4.13257         0.028470      1.469464     -1.587450
O	      4.15349      6.28310      4.44771        -1.946220      0.122373     -0.067601
O	      4.24067      4.14681      6.42050         0.061533     -0.485729     -0.092495
O	      6.25044      6.31158      6.48734         0.001212     -0.537013      1.013130
O	      6.44717      4.26805      8.53893         1.676090      1.288688     -0.122382
O	      8.39061      6.23949      8.69544        -1.243425     -1.044174     -0.178080
O	      2.12918      6.26407      6.34363        -1.233423     -0.055122     -1.205398
O	      4.24538      8.57851      6.44888        -0.294004      1.212276      0.352410
O	      4.29470      6.23215      8.57199         1.432289      0.524611      0.351814
O	      6.29882      8.23930      8.63324        -0.371653     -1.651223      0.516631
O	      6.37019      6.26695     10.79132         0.257608      0.375457      0.276871
O	      8.46109      8.39274     10.73870        -0.255795     -0.178124      0.009296
