# total energy = -184.76914490 eV
 
CRYSTAL
PRIMVEC
0.027605 6.174169 6.390691 
6.403830 0.000115 6.418204 
4.266269 4.131599 0.003245 
PRIMCOORD
27 1
Sc	      8.49819      2.10488      6.45280        -0.845013     -0.435263      0.039112
Sc	      4.25437      2.04292      2.16716        -0.410082     -1.178029      0.696049
Ti	      6.29251      2.08062      4.40104        -1.371159     -0.733521      1.929326
Ti	      0.09711      4.09444      4.22419        -0.036609     -0.158316     -0.326511
Ti	      4.34951      4.09399      8.40413         1.374893     -0.343507     -1.185059
Cr	      6.42810      8.18977      6.39140         0.852598     -1.880837     -0.607757
Co	      6.34663      4.14153      2.15038         0.217793      0.463683      0.804647
Ni	      8.61915      4.23322      8.48007        -0.271440      0.777281     -0.200297
Ni	      2.15451      6.19900      4.28294         0.405615     -0.053098     -0.276064
O	      2.20122      2.13542      2.10026         0.674469     -1.431119     -0.722856
O	      4.27310      4.10383      2.16800         1.511856     -0.132979     -0.086136
O	      4.43579      2.01305      4.21452         1.311755      0.476710     -0.610214
O	      6.39836      3.97131      4.21742        -0.316534     -0.033948     -2.250312
O	      6.44424      2.05865      6.24172         0.741099     -0.016533     -1.276871
O	      8.51439      4.10982      6.47995         0.061898      0.644758      0.692886
O	      2.03034      4.14826      4.31741        -0.552975      0.991116      0.481880
O	      4.23786      6.36066      4.26900        -1.168891      0.701419      0.122089
O	      4.19153      4.09330      6.54767        -1.398091      0.330540      0.979798
O	      6.40724      6.26661      6.37151         0.035841      2.350940     -0.007067
O	      6.29875      4.15651      8.68710        -0.225975     -0.057006      0.994914
O	      8.58025      6.29561      8.62556        -0.123128      0.031528      0.635722
O	      2.15877      6.12526      6.40322        -0.004419     -1.283110      1.182268
O	      4.32894      8.24905      6.32302         0.450366      0.099454     -0.104092
O	      4.21602      6.05979      8.54967        -2.083962     -0.051400     -0.097750
O	      6.48188      8.16920      8.50428        -0.044540      1.829053     -0.624522
O	      6.47603      6.17819     10.67022         1.211078      0.074493     -0.083057
O	      8.58255      8.26071     10.65911         0.003555     -0.982307     -0.100128
