# total energy = -186.57734111 eV
 
CRYSTAL
PRIMVEC
0.022979 6.298905 6.236014 
6.380244 0.010044 6.249048 
4.266094 4.220527 -0.005866 
PRIMCOORD
27 1
Sc	      4.22766      0.04554      4.17480        -0.626282     -0.089222      0.164437
Sc	      2.17859      6.38892      4.23232         0.393395      0.077008      0.942330
Ti	      2.06634      4.01197      2.10225        -1.057774     -1.969199      1.306605
Ti	      4.33210      4.18479      4.26630        -0.183148      0.699113      0.382156
Ti	      6.39727      6.41583      8.14712        -1.095279     -0.098441     -0.483858
Cr	      4.26526      4.18841      0.03280         0.809875     -1.222282      0.055942
Co	      4.33716      2.12471      6.24226        -0.022431      0.305034     -0.579030
Cu	      2.14030      6.32566      8.25380        -0.079911      0.627108      0.023350
Cu	      4.30785      4.24837      8.24678         0.649089      0.315327     -0.138197
O	      2.06730      2.17746      2.09161         0.184567     -0.056288     -0.224580
O	      4.07864      4.19149      2.09138         0.211652     -0.145255     -0.347634
O	      4.24492      2.19027      4.14798         0.286594     -0.037096      2.000989
O	      6.31658      4.22149      4.00156         0.031063     -0.169606     -1.265882
O	      6.32628      2.01140      6.25930        -1.850115     -1.595323     -0.018469
O	      8.56789      4.20215      6.30702         1.379147      1.749074     -0.229488
O	      2.27275      4.21286      4.06780         1.010882      0.810694     -1.195456
O	      4.21595      6.13163      4.19031        -0.107072     -1.347442     -0.199947
O	      4.33319      4.20546      6.16084         0.095743     -1.906817      0.228494
O	      6.46137      6.31509      6.32371         1.780202      0.108160      0.647026
O	      6.49506      4.30440      8.32163        -0.274069      1.207265     -0.251058
O	      8.40015      6.15263      8.38796        -0.224898      0.862871     -1.168050
O	      2.04264      6.32415      6.31296        -1.657004      0.067617      0.525613
O	      4.28363      8.52084      6.21745        -0.138472      2.236541      0.042007
O	      4.48838      6.41257      8.33934        -0.265146     -1.138527      0.397153
O	      6.56390      8.33602      8.27854         0.859823      0.264418     -0.158869
O	      6.38952      6.32497     10.43873         0.004963      0.051326      0.625132
O	      8.56570      8.45705     10.25538        -0.115395      0.393945     -1.080714
