# total energy = -169.71781262 eV
 
CRYSTAL
PRIMVEC
0.008521 6.127266 6.204588 
6.419869 -0.002117 6.215944 
4.281870 4.094868 -0.003264 
PRIMCOORD
27 1
Mn	      2.18070      6.16650      8.25049         0.392573     -0.208079     -0.726387
Mn	      4.24099      4.16608      4.10688        -0.078258      0.450586     -0.108917
V	      6.51248      4.10091      6.33342         0.257422     -0.457404      2.143822
Cr	      4.27477      8.16688      8.26418        -0.927908     -0.525926      0.369733
Cr	      4.28246      8.12041      4.08382        -0.618878     -0.755609     -0.761958
Cr	      2.14203      4.05868      6.17349        -0.195830     -0.305945     -0.163938
Fe	      8.60138     10.15303     10.34098         0.169162     -0.110249     -0.074098
Ni	      6.46291      0.07561      6.20761         0.038398      0.604840     -0.161121
Ni	      8.57727      6.16773      6.27845         0.028956      0.078971      0.452944
O	      8.55074      6.13844      8.21921         0.025066      0.078805     -0.269117
O	      2.29521      1.91779      2.01842         1.558118     -0.529931      0.058973
O	      4.37160      4.06781      2.11557         1.145715     -0.533994      0.076870
O	      4.30711      2.13072      4.08997        -0.008774      0.162233     -0.762693
O	      6.52477      4.09959      4.34796        -0.003860      0.135271     -0.830450
O	      6.37130      2.18865      6.23335        -0.736818      0.979871      0.214968
O	      8.42916      4.11216      6.20911        -0.294642      0.559268     -0.960176
O	      2.02588      4.04668      4.19239        -0.191422      0.121595      1.673444
O	      4.28677      6.09733      4.10341        -0.029102      0.635586      0.038324
O	      4.29134      4.10775      6.07345        -0.077245     -0.698770     -0.857210
O	      6.48334      6.03208      6.27523         0.500850      0.136927     -0.030718
O	      6.41389      4.07580      8.17654         0.040417      0.001876     -1.021146
O	      2.07695      6.04041      6.18344        -0.161703     -0.945298      1.693604
O	      4.41154      8.19221      6.17656         0.991765      0.614341      0.057940
O	      4.18164      6.18041      8.36543        -1.225602      0.724102      0.778495
O	      6.34189      8.29014      8.19934        -1.100921      0.844812     -1.329886
O	      6.30471      6.06125     10.39692        -1.170036     -1.483505      0.495320
O	      8.68503      8.22334     10.35560         1.672560      0.425630      0.003377
