# total energy = -187.16113839 eV
 
CRYSTAL
PRIMVEC
-0.033920 6.432627 6.511096 
6.373454 0.028794 6.447859 
4.289930 4.287505 -0.021987 
PRIMCOORD
27 1
Sc	      2.08407      0.09503      2.09986        -1.619852     -0.013045     -0.121985
Sc	      4.17669      2.20431      2.13799        -0.051493      1.748903     -0.034828
Sc	      4.32832      4.37784      4.38195         0.388571     -1.348126     -0.588835
Sc	      2.01827      4.26182      6.36830        -0.311043     -0.355215     -0.916313
Sc	      6.39758      6.39788      8.68094         1.660569     -0.744999     -0.441267
Ti	      8.62615      8.48865      8.65122         0.713707     -2.173516     -0.107986
Cr	      8.54079      4.34659      4.40809        -0.118291     -0.089333      3.852529
Cu	      4.24958      6.48984      6.38371         0.278035      0.288687     -0.117126
Ni	      2.13842      6.46421      4.38953        -0.473941      0.452823     -0.389318
O	      6.38214      2.14655      6.49586         0.001599     -0.020821     -0.033701
O	      2.18642      2.11200      2.11551        -0.063285     -0.309605     -0.023219
O	      4.34430      4.20844      2.25732         1.143500     -0.675463      0.962870
O	      4.27558      2.08452      4.27127         0.148081     -1.062671     -0.416858
O	      6.46790      4.31997      4.22685         1.089206      0.057947     -0.578200
O	      8.53697      4.32865      6.26069        -0.027411     -0.107167     -3.062921
O	      2.19827      4.34728      4.34951         0.997645      0.899555      0.792841
O	      4.20534      6.37870      4.24425        -0.607434      0.235281      1.278410
O	      4.18985      4.34767      6.60298        -0.319298      1.697676     -0.325729
O	      6.23859      6.49241      6.57168        -1.795218      0.269141      0.186664
O	      6.19958      4.35169      8.60516        -1.129266      0.369203      0.197350
O	      8.45138      6.60737      8.69125        -0.640033      1.620420      0.586303
O	      2.21951      6.41448      6.48852         1.482600     -0.172632     -0.291641
O	      4.27521      8.52665      6.56164         0.040542     -1.844822      0.281829
O	      4.22429      6.40764      8.84461        -0.067350      0.177208     -0.025622
O	      6.43619      8.59345      8.53258        -0.076101      0.085506     -0.361922
O	      6.27327      6.46348     10.75379        -0.776910      0.250256      0.081465
O	      8.48644      8.67475     10.58290         0.132870      0.764811     -0.382792
