# total energy = -183.88375697 eV
 
CRYSTAL
PRIMVEC
0.016055 6.480798 6.292641 
6.581196 0.070545 6.240036 
4.418888 4.314790 0.015914 
PRIMCOORD
27 1
Sc	      8.66462      4.38081      4.18456        -1.413948      0.155793     -0.204236
Sc	      6.53225      2.27201      4.16382        -0.004159      1.215270     -0.244347
Sc	      4.47816      4.31408      8.36784         0.293041     -0.692341      0.891094
Mn	      4.44999      4.30135      0.13339         0.108563      0.638028      1.318819
Mn	      6.63337      6.47102      8.36574         0.506299     -0.089167     -0.363539
V	      8.77304      6.48322      6.26797         1.587743     -1.496941     -0.949590
V	      2.24150      4.35827      6.05278         0.874009      2.078544     -2.311924
Co	      4.35906      6.55031      6.21938        -0.401738     -0.084810     -0.557977
Cu	      4.46866      8.58627      4.21341        -0.010093     -0.058635     -0.416810
O	      2.22181      2.17360      2.06999        -0.077921      0.008271      0.155731
O	      4.43368      4.30171      1.98632         0.102738     -0.135677     -1.149603
O	      4.42663      2.16300      4.35529        -0.050410     -0.190313      1.807019
O	      6.64878      4.27574      4.16430         0.629758     -0.448488     -0.109407
O	      6.33195      2.15298      6.26168        -1.752786     -1.204574      0.104311
O	      8.76483      4.53871      6.23738         1.123723      1.879019      0.308827
O	      2.36885      4.39156      4.32165        -0.740609     -0.303285      2.802065
O	      4.39445      6.62922      4.24334         0.032371      1.089150      1.250896
O	      4.28364      4.23566      6.30824        -1.400764     -0.219406     -0.103070
O	      6.73893      6.62983      6.23484         0.013291      0.708917      1.669772
O	      6.55215      4.53411      8.43909        -0.050374      0.648516      1.406278
O	      8.64473      6.54474      8.20606        -1.029437      0.059468     -1.225773
O	      2.26279      6.27054      6.35717        -0.320496     -2.084779      0.013811
O	      4.66049      8.69073      6.23328         0.879380     -0.397098     -1.073462
O	      4.64046      6.43589      8.34881         0.920683     -0.228541     -0.836930
O	      6.71353      8.43880      8.34545         0.151769     -0.887091     -0.372645
O	      6.51145      6.52528     10.60950        -0.340824     -0.653822     -0.936380
O	      8.61720      8.76183     10.45995         0.370190      0.693991     -0.872932
