# total energy = -155.48104505 eV
 
CRYSTAL
PRIMVEC
0.025182 6.450940 6.327677 
6.159488 0.011849 6.342173 
4.096588 4.300381 0.018014 
PRIMCOORD
27 1
Sc	      4.13859      2.24317      6.27802         0.265720     -0.734659     -1.368876
Mn	      2.09559      8.59112      6.32169        -0.439425      0.623772      1.174921
Cr	      2.06722      4.23046      2.15468         2.539525     -1.570221     -0.225839
Fe	      4.02875      0.07927      4.18608        -1.136667      1.156575      0.232611
Fe	      4.16016      6.31084      2.18548         1.488964     -0.582100     -0.129540
Fe	      6.08435      6.63078      8.39286        -0.956831      0.642759     -0.857446
Cu	      4.10963      8.56675      4.27664         0.300603     -0.175005      0.923764
Cu	      2.04961      6.41483      4.28210         0.108905     -0.287559      1.109202
Cu	      4.10940      4.43989      8.27593        -1.231749      1.015446     -1.071726
O	      2.05876      6.68717      6.20302         0.319809      0.719848     -1.172144
O	      3.98892      8.61554      6.26342        -0.837508     -0.359515     -1.340315
O	      6.29821      8.55139      8.43358         1.558906     -0.607572     -0.193345
O	      2.05045      2.22576      1.95983        -0.955479      0.903303     -0.660512
O	      4.02823      4.35611      2.19788        -2.016386      0.722606      0.021011
O	      4.14605      2.00623      4.28232        -0.285803     -1.747308     -0.174835
O	      6.32990      4.32850      4.22130         1.253349      0.232766      0.020226
O	      6.24645      2.16640      6.49529         0.284585     -0.261517      1.500502
O	      8.22449      4.20752      6.42452        -0.095666     -0.339833      0.548745
O	      1.97253      4.21105      4.11726        -0.906597      0.831262     -1.026276
O	      4.06462      6.52611      4.14359        -1.229197      0.579487     -0.815182
O	      4.12236      4.22886      6.28901        -0.083898      0.531801      1.327131
O	      6.19757      6.42959      6.48364         0.250911      0.416377      1.848819
O	      6.13748      4.25369      8.56909        -0.253116     -0.150986      0.852015
O	      8.20032      6.26393      8.55633        -0.192518      0.182044      0.272768
O	      4.15526      6.49619      8.54155         0.737668     -1.117470      0.637443
O	      6.07309      6.37651     10.45937         0.789874     -0.541966     -1.006913
O	      8.24210      8.78380     10.73456         0.722021     -0.082335     -0.426208
