# total energy = -103.24433483 eV
 
CRYSTAL
PRIMVEC
4.090774 0.000579 0.002791 
-0.002568 4.173949 -4.227999 
0.002458 6.267730 2.120777 
PRIMCOORD
16 1
Li	      4.08620      4.18238     -4.19417        -0.000789      0.019171      0.001925
Li	      2.05020      1.99852      0.13302        -0.001049     -0.012030      0.006790
Li	      4.08225      4.18632     -0.07150        -0.008688     -0.001312     -0.011002
Li	      4.08751      6.24170     -2.10490         0.001015     -0.019666     -0.033301
Ti	      4.08255      2.08726     -1.92712        -0.005632     -0.034192      0.532754
Ti	      1.96185      8.33817     -2.28594        -0.047911      0.010778     -0.297453
Ni	      2.05099      6.26078      0.01813         0.001060     -0.011644      0.018637
Ni	      2.04737      4.28649     -2.12976        -0.000925      0.030277      0.026983
O	      0.00395      2.07213     -0.12667        -0.003862      0.011409     -0.484513
O	      2.04364      4.21090      0.07068        -0.009033     -0.116276      0.322734
O	      0.00223      4.05674     -2.10027         0.000657     -0.111779     -0.000194
O	      2.05434      6.36138     -2.08026        -0.009761      0.204409     -0.096072
O	      0.00494      6.42731     -0.00812         0.002764      0.153396      0.009630
O	      2.05180      8.37906     -0.07961         0.008863      0.014321     -0.006703
O	      0.03522      8.33323     -2.07720         0.081209      0.005396      0.018845
O	      2.05715     10.26720     -2.08792        -0.007917     -0.142257     -0.009058
