# total energy = -167.72000632 eV
 
CRYSTAL
PRIMVEC
0.023261 6.201985 6.456747 
6.101953 -0.071214 6.552193 
4.049383 4.178579 -0.028989 
PRIMCOORD
27 1
Sc	      2.11347      6.18665      4.39614         0.225227      1.154953     -0.045025
Ti	      4.04011      4.14805      8.68099        -0.975991      1.515020      1.337205
Cr	      4.09162     -0.03806      4.39352         0.743339     -0.961921     -0.772787
Cr	      6.08315      4.07399      6.45543        -0.157711     -1.793867     -0.833523
Cr	      6.11546      6.19233      8.63642        -1.073125      1.059691      1.545854
Co	      4.08996      2.00216      6.51510         0.730058      0.033335     -0.261625
Cu	      2.10889      4.02314      2.19982         0.281403     -0.342591     -0.254074
Cu	      6.04654      6.20076      4.24040        -0.457438     -0.090566     -0.135947
Cu	      1.95876      4.17237      6.43430        -0.379055      0.522675      0.614107
O	      2.05047      4.11176      4.36685        -0.040471     -0.808699      0.081945
O	      4.11834      8.30326      6.45882         0.610337      0.078075      0.041114
O	      2.05342      2.11358      2.21970         0.006917      0.580550      0.620663
O	      3.97971      4.14391      2.16457        -0.519770     -0.066893     -0.095746
O	      3.91708      1.96874      4.58078        -0.443453     -0.680552      0.577428
O	      6.14237      4.16817      4.47885         0.720757      1.396606      0.952007
O	      5.99658      2.12756      6.47586        -1.200219      1.581047     -0.082032
O	      8.08073      4.23757      6.34860        -0.561968      0.940394      0.428777
O	      4.16876      6.20954      4.31376         0.573097     -0.063907     -0.076652
O	      4.06780      3.96419      6.66387         0.059824     -0.958881     -0.086803
O	      6.17872      6.17425      6.62504         0.788054     -0.422226     -0.160206
O	      6.08614      4.18133      8.49278         0.720636      0.669682     -0.901130
O	      8.11489      6.23205      8.57821        -0.214121     -0.652048     -0.363417
O	      2.06701      6.16023      6.39231        -0.015110     -0.922415      0.213759
O	      4.11310      6.06828      8.76133         0.885614     -0.836812      0.770895
O	      6.19354      8.20973      8.61515         0.566429     -1.234443     -1.085464
O	      6.10811      6.18208     10.63191        -0.731149     -0.005527     -1.240121
O	      8.17306      8.25822     10.61172        -0.142112      0.309319     -0.789201
