# total energy = -170.46483520 eV
 
CRYSTAL
PRIMVEC
-0.016020 6.245735 6.244741 
6.222407 -0.009682 6.238463 
4.157354 4.168677 -0.015475 
PRIMCOORD
27 1
Ti	      4.08807      0.04695      4.12410        -0.795478     -0.137892     -0.964228
Ti	      6.27492      8.31767     10.31467         1.164260     -0.114372     -1.610166
V	      0.12419      6.22438      6.27588         3.528063     -0.553216     -0.538996
Cr	      6.22662      2.06150      8.29346        -0.283009      0.341343      0.665439
Cr	      4.16618      8.27765      4.17841        -0.223533     -0.701638      0.638716
Co	      8.26956      4.18444      8.33232        -0.017535     -0.292764      0.222132
Ni	      4.10199      8.29304      8.26042         0.373455     -1.040005     -0.142633
Ni	      4.04616      4.22029      4.27420        -0.147512     -0.064044      0.501123
Ni	      6.12750      4.27713      6.29179         0.015141      0.484047      0.154237
O	      2.05346      2.24521      2.04628        -0.912225      1.570523      0.117348
O	      4.14487      4.17536      2.04125        -1.533117      0.304408     -0.543532
O	      4.26933      2.01876      4.12564         0.250488      0.149227     -0.491959
O	      6.29325      4.03505      4.20449        -0.132456     -0.311373      1.039560
O	      6.24282      2.01133      6.20432        -0.173047     -0.710235      1.160905
O	      8.43070      4.17171      6.12256        -0.401698      0.117929      1.311915
O	      1.99173      4.17667      4.11243        -0.509153      0.068816     -2.049765
O	      4.12735      6.29973      4.03757         0.098382      0.550762     -1.620992
O	      4.14754      4.17771      6.20369         0.608235     -0.044346     -0.328964
O	      6.21534      6.21272      6.22646        -0.097864     -0.491751      0.120460
O	      6.22866      4.06467      8.39068         1.560513     -0.743392     -0.105444
O	      8.38911      6.06522      8.29243         1.417613     -1.147339     -0.075558
O	      1.86175      6.26874      6.25258        -3.165772     -0.136650      0.045638
O	      4.11854      8.43271      6.19614         0.101266      1.818345     -0.462116
O	      4.10549      6.28503      8.50497         0.277718      0.839534      0.636969
O	      6.18768      8.29543      8.48748        -1.000778     -0.213664      0.886798
O	      6.14465      6.24776     10.48524        -0.453639     -0.498449      1.603446
O	      8.24814      8.41893     10.38593         0.451680      0.956194     -0.170337
