# total energy = -162.67552991 eV
 
CRYSTAL
PRIMVEC
-0.038715 6.370290 6.326145 
6.142293 -0.017238 6.307809 
4.106913 4.246654 -0.023053 
PRIMCOORD
27 1
Ti	      4.09999      4.29228      4.28106         0.104874      0.246486      0.444200
V	      8.09108      4.32464      8.36081        -0.779922      1.222644     -0.012452
V	      6.15843      6.36255      4.22217        -0.029397     -0.230867      0.629178
Fe	      8.17290      8.42753     12.48102         0.449217      0.457282      0.606634
Fe	      2.21864      6.41794      8.42768         0.019702     -0.209288      0.213927
Fe	      6.07652      8.46051      6.39578         0.106824      0.215576     -0.174344
Cu	      6.12407      6.37035     12.54106        -0.500178     -0.053349      0.212849
Cu	      6.01781      6.37036      8.40026         0.020098     -1.023784      0.056761
Ni	      6.09968      8.41821     10.48273         0.019539      0.069209     -0.142642
O	      2.05937      2.08393      2.16832        -0.013556     -0.127789      1.763234
O	      3.87858      4.22959      2.27386         0.315661      0.087209      0.106474
O	      4.05611      2.25260      4.23883        -2.256892      0.382227      0.076595
O	      6.07848      4.26464      4.14470        -0.318461      1.648808     -0.621736
O	      6.21289      1.97478      6.25113         1.036593     -1.644076     -0.789295
O	      8.21290      4.08929      6.52800         1.405660     -0.895537     -0.483284
O	      2.06098      4.19352      4.15575         0.363558     -2.585622      0.259052
O	      4.15929      6.19741      4.22480         2.838297     -0.279057      0.255926
O	      3.98870      4.24074      6.20685        -1.123662      0.042037     -0.961922
O	      6.11013      6.49966      6.30594         0.049707      0.736618     -1.518765
O	      6.32708      4.04991      8.43598         1.040496      0.787662     -0.111500
O	      8.09184      6.08029      8.38386        -1.508501     -0.694232      0.204972
O	      2.00787      6.41018      6.41148        -1.406384      0.031602      0.138480
O	      4.09017      8.65672      6.26656        -0.155892      1.337460      0.045538
O	      4.07899      6.39042      8.39960         1.118242      0.043018      0.009825
O	      6.14271      8.70037      8.34854        -0.033400     -0.139573      0.356301
O	      6.09494      6.41971     10.33959        -0.136178      0.505882     -0.291802
O	      8.15513      8.47898     10.57433        -0.626045      0.069454     -0.272206
