# total energy = -191.22246354 eV
 
CRYSTAL
PRIMVEC
-0.027568 6.362000 6.224752 
6.426900 -0.004415 6.200491 
4.279195 4.219778 0.003172 
PRIMCOORD
27 1
Ti	      4.10237      8.42944      8.11952        -0.810092     -0.441105     -1.380043
Ti	      8.63861      6.53050     10.39685         0.671590      2.165396      1.418030
Mn	      2.06508      4.20407      2.11560        -0.924199     -1.341537     -0.443301
Mn	      4.44212      4.28417      4.14547         0.193593      0.763568      0.825422
Mn	      2.12193      4.23391      6.17201        -0.910546     -0.690024      0.005519
Mn	      6.39188      6.31645      8.27666        -0.394410     -0.265104     -0.524681
V	      4.47628      2.12936      6.21057         3.279757     -0.191912     -0.902771
Cr	      8.51445     10.52463     10.39293         0.258550     -1.341113      1.116056
Co	      6.38724     10.54140      8.26682         0.218181      0.621024     -0.048370
O	      2.22293      2.13090      2.08654         1.061674      0.361408     -0.126558
O	      4.38010      4.01175      2.06777        -0.456400      0.205943      1.969152
O	      4.28536      1.98891      4.21258         0.146076      0.395375      1.132496
O	      6.54775      4.18019      4.04864        -0.712339     -0.132901     -2.207656
O	      6.24586      2.10734      6.27808        -3.543243      0.098573      0.006783
O	      8.54629      4.35060      6.16591         0.271999      1.762501      0.213557
O	      2.12184      4.37105      4.22885         1.565236      0.642299     -0.375587
O	      4.07266      6.40540      4.16159        -1.067928     -1.459642     -0.228114
O	      4.30427      4.09835      6.21722        -1.357196     -1.093056     -1.726483
O	      6.57711      6.43334      6.27355         0.688754      1.150288      1.442955
O	      6.42090      4.40431      8.27701         1.563879      0.963329      0.100175
O	      8.60110      6.36200      8.33585        -1.813114     -1.712880     -0.786475
O	      2.05875      6.25970      6.15131         0.089797     -1.499642      0.887498
O	      4.18482      8.40549      6.30514         1.723281      0.200184      0.975915
O	      4.14344      6.40154      8.33372         0.699249      0.631373      1.171523
O	      6.21455      8.31887      8.17544        -0.164465      0.339518     -0.975430
O	      6.37770      6.36985     10.25446        -0.493089     -0.198953     -1.362664
O	      8.49853      8.41579     10.40183         0.215406      0.067091     -0.176947
