# total energy = -159.31148828 eV
 
CRYSTAL
PRIMVEC
-0.040310 6.053059 6.244452 
6.439568 -0.031483 6.235125 
4.267631 4.003138 0.004837 
PRIMCOORD
27 1
V	      8.48040      3.93493      8.25072        -0.540392     -1.290445     -3.046408
V	      2.15492      4.05270      6.28328        -0.076644      0.900959      3.482640
V	      8.54215      7.91412      8.36900        -0.897520     -1.743830      1.526619
Fe	      8.52850      4.01246      4.26335        -0.908381      0.513628     -0.363470
Fe	      4.38379      4.00852      4.04426         1.326021     -1.116005     -0.415002
Co	      4.29647      6.03590      6.28467        -0.644109     -0.024406      1.497528
Cu	     10.67887      4.01734      6.26524        -0.136073      1.113883      0.352240
Cu	      4.20419      8.02529      4.20361        -0.578607      0.256259     -0.669275
Ni	      2.15524      2.02399      4.16190         0.643496     -0.847637     -0.354553
O	      2.08824      2.19273      2.10020        -0.230203      2.473773      0.660778
O	      4.07132      4.05564      2.08268        -1.681189      0.122878     -0.430072
O	      4.22457      1.98304      4.12635        -0.905064      0.279239      0.163513
O	      6.36838      4.01854      4.10106         0.001082      1.380703      0.163439
O	      6.43928      1.89613      6.20904        -0.041373     -0.731311     -0.008439
O	      8.39475      4.00907      6.30369         0.862328     -0.114629      2.068637
O	      2.31857      4.08263      4.13854        -0.120806     -1.114264      0.056830
O	      4.34745      6.04414      4.37027         0.719700      0.137221      0.606523
O	      4.21720      4.06560      6.26149        -1.100614      0.801290      0.149950
O	      6.25340      6.16879      6.21361        -0.730075      0.765556     -0.716492
O	      6.41897      3.99417      8.41295         0.479050      0.006837      1.066586
O	      8.52203      6.05155      8.32283         0.287395      1.355972     -0.078011
O	      2.34065      5.94578      6.25721         0.616378     -1.601546     -0.308105
O	      4.43548      8.02069      6.25872         1.272394      0.327581     -1.058861
O	      4.29339      5.87964      8.26371         0.203876     -1.301149     -1.000560
O	      6.57675      8.02028      8.18966         1.516191     -0.233334     -2.568697
O	      6.19272      5.94511     10.49643        -0.190063     -0.904561      1.250605
O	      8.40583      8.06774     10.27321         0.853205      0.587337     -2.027945
