# total energy = -183.22630700 eV
 
CRYSTAL
PRIMVEC
0.014990 6.345748 6.173075 
6.321542 0.001074 6.187036 
4.201111 4.226477 0.014360 
PRIMCOORD
27 1
Ti	      8.46192      2.20956      6.19550        -0.846962      2.123993      0.238828
Ti	      4.26431      2.03456      6.14051        -0.040676     -0.757336     -1.450449
Mn	      6.26413      4.20921      2.10255        -0.330512      0.594017      1.411331
Mn	      6.31625      6.33760      8.31640        -0.114723     -0.122872      0.169855
V	      4.15875      4.23804      4.11851        -1.234151     -0.782861     -1.076607
Cr	      8.44040      8.44529      8.30409         0.284371      0.209844      0.417169
Co	      2.12533      6.34072      4.11876         0.436015     -0.658828     -0.203600
Co	      4.32550      6.39480      6.16081         0.847788      0.654744     -0.386774
Co	      6.31003      6.33859     12.31000        -0.655747      0.037811      0.033041
O	      2.07923      2.18632      1.88603         0.112556     -1.845571     -0.627138
O	      4.32348      4.18452      2.11815         1.119894      0.116250      0.906545
O	      4.17785      2.18838      4.25229         0.237145      2.019506      0.906701
O	      6.11242      4.24021      4.02687        -0.720559     -0.133653     -1.211958
O	      6.28888      2.07120      6.16517        -0.210124     -1.625738     -0.012597
O	      8.37316      4.25162      6.16180         1.771380     -0.347218      0.124544
O	      2.33808      4.23443      4.11099         1.626508      1.538585     -0.125774
O	      4.20117      6.22984      4.17626        -1.503695     -1.526472      1.038300
O	      4.27535      4.10711      6.17340         0.085901      0.075661     -0.061534
O	      6.44449      6.33013      6.30784        -0.283866     -0.035103      1.465323
O	      6.21469      4.39192      8.28639        -1.468106      1.124774     -0.004100
O	      8.52338      6.42127      8.16763        -1.739651      0.879157      0.878809
O	      2.12746      6.46106      6.26193        -0.439145      0.533848     -0.263122
O	      4.08161      8.48797      6.15494        -1.034867      0.162987      0.241850
O	      4.06480      6.24341      8.23189         0.802635     -0.895631     -1.177495
O	      6.41314      8.31826      8.25035         1.587172      0.505633     -0.030822
O	      6.38762      6.33587     10.26667         1.680373     -0.085874     -0.128653
O	      8.41033      8.45490     10.35037         0.031046     -1.759652     -1.071673
