# total energy = -101.32475561 eV
 
CRYSTAL
PRIMVEC
0.000348 -0.000053 -3.823904 
-2.235614 8.424293 -1.911966 
4.983271 0.122325 -0.000057 
PRIMCOORD
16 1
Li	      0.27775      0.24400     -3.82033        -0.016276     -0.008200     -0.007302
Li	      2.89669      2.52045     -3.82167        -0.005506      0.021869     -0.000107
Li	     -0.23672      4.00683     -3.82186         0.000630      0.001068     -0.000384
Li	      2.38261      4.22138     -1.90956         0.007761     -0.032809     -0.003303
Ti	      2.87352      0.18163     -1.90962         0.332630      0.426940     -0.001013
Ti	     -0.21003      6.16955     -1.91019        -0.207247     -0.415217      0.002769
Ni	      2.39742      6.20735     -3.82215        -0.044136      0.242044      0.008609
Ni	      0.32080      2.26212     -1.90996        -0.053024      0.013685      0.005149
O	      2.33061      1.92528     -1.90936         0.220226     -0.418955     -0.002912
O	      0.15320      8.22370     -1.91027         0.028373     -0.010177      0.006652
O	      0.32821      4.43185     -1.91024        -0.116638      0.509662      0.001775
O	      2.95170      6.44406     -1.90963         0.431813      0.030699     -0.004919
O	     -0.10236      2.12193     -3.82161        -0.044245     -0.042524     -0.004188
O	      2.83733      4.39516     -3.82167         0.073328     -0.290794      0.001919
O	      2.44246      8.51171     -3.82146        -0.471442     -0.011845     -0.000194
O	      0.33589      6.51392     -3.82181        -0.136248     -0.015446     -0.002552
