# total energy = -201.85176623 eV
 
CRYSTAL
PRIMVEC
0.029160 6.393781 6.497210 
6.394828 0.020350 6.506616 
4.257517 4.262580 0.018978 
PRIMCOORD
27 1
Sc	      6.37871      2.17349      4.43747         0.362843      0.494445      0.925010
Sc	      6.44591      6.34757      4.44460        -0.099300     -0.721191     -0.005090
Ti	     10.61300      6.35807      8.63248        -0.253941      1.706526      0.706725
Ti	     10.63229      8.60286     10.89810        -0.554867     -0.385512     -2.194029
Ti	      4.33048      4.36181      8.55015         2.469734     -0.183651      0.160856
Mn	      4.24287      8.44663      8.62933        -0.405795     -0.239993      0.928955
Mn	      2.21517      4.24086      6.46887         0.641844     -0.331860     -1.019576
V	     10.53366      4.29218      6.51630        -3.552368      0.923572     -0.877489
Fe	      2.17510      6.40079      8.61677         0.245457      0.789471      0.282976
O	      2.00560      2.15457      2.20748         0.898985     -1.822615      0.497772
O	      4.19361      4.38802      2.12030         1.384357     -0.821281     -1.804624
O	      4.29333      2.18789      4.27265        -0.033802     -0.245888     -2.169889
O	      6.38077      4.24932      4.26047         0.151573     -0.375441     -1.635180
O	      6.43306      2.12837      6.58806        -0.324139     -2.811496      0.231576
O	      8.63886      4.28894      6.53496         4.014211     -0.065658      0.034009
O	      1.93512      4.23178      4.31151        -0.500803     -0.609012      2.224587
O	      4.28374      6.50467      4.20421         0.431542      1.158335     -1.238028
O	      4.32732      4.30568      6.67866        -2.114394     -0.274713      0.525332
O	      6.41909      6.40075      6.45456         0.212471      2.464880      0.255211
O	      6.32927      4.23166      8.79218        -1.347537     -1.029045      1.213096
O	      8.71475      6.55571      8.67239         0.512552      1.026383     -0.072392
O	      1.98748      6.35568      6.59878        -1.072185     -2.159732      1.229233
O	      4.18888      8.54066      6.38954         1.764753      1.770458      1.252115
O	      4.33699      6.29327      8.65333        -1.846713      0.354908     -0.161488
O	      6.55931      8.46117      8.78476        -0.854858      1.513278     -1.144553
O	      6.42660      6.33945     10.93198        -0.204283     -0.109638      2.771488
O	      8.61044      8.55639     10.75456         0.074662     -0.015532     -0.916602
