# total energy = -174.59993638 eV
 
CRYSTAL
PRIMVEC
0.009684 6.191666 6.291870 
6.326801 -0.016197 6.318757 
4.210507 4.137889 -0.003645 
PRIMCOORD
27 1
Sc	      4.10173      2.04294      2.11354         0.795937      0.163341     -0.366814
Ti	      6.41027      6.28884     12.55221        -0.099429      0.393704      0.577501
Ti	      6.34852      4.22392      6.27507         0.107262      0.566519      0.221254
Ti	      8.47260      8.13704      8.54072         0.654744      0.047639      0.875115
Mn	      2.18128      4.08617      6.23660        -0.231677     -0.008252      0.094948
Co	      4.20674      4.16756      4.19174         0.206217      0.540429     -0.413197
Ni	      2.12598      8.24674      6.28054         0.036560     -0.450819     -0.420845
Ni	      4.18146      0.03874      4.21557        -0.323701     -0.096882      0.241560
Ni	      6.34219      6.16314      8.49881         0.559131     -0.359507     -0.129152
O	      2.13502      2.04920      2.03249        -0.570873      0.101867     -0.892037
O	      4.16931      4.12500      1.92109        -0.140354     -0.496807     -0.161488
O	      4.25369      2.22014      4.15394        -0.174532      0.761144      0.181510
O	      6.25837      4.13080      4.35698        -0.467722      0.093225      0.626395
O	      6.35712      2.04098      6.30809         0.788534     -0.082896     -0.174385
O	      8.34256      4.11522      6.26462         0.226713     -0.840769     -1.191158
O	      2.25022      4.10371      4.35171         1.694194      0.234677      0.186994
O	      4.21957      5.98350      4.21096        -0.131817     -2.052462     -0.093945
O	      4.34308      4.11453      6.41599        -0.918593     -0.146587      0.038402
O	      6.35033      6.11807      6.36535         0.013717      0.496440      0.734765
O	      6.23155      4.10952      8.33670        -0.943369      1.069423     -0.790415
O	      8.36701      6.28834      8.46577        -1.034708      0.364226      0.172977
O	      1.98284      6.17191      6.24851        -0.829086     -0.936853     -0.059006
O	      4.22318      8.33878      6.25807         0.868081      0.986453      0.521396
O	      4.26248      6.12889      8.46342         1.061524     -0.052103      1.282324
O	      6.41348      8.24522      8.20986        -0.019851     -1.294136     -0.495429
O	      6.23136      6.21379     10.61851        -1.072141      0.345738     -0.223208
O	      8.42308      8.29217     10.42593        -0.054761      0.653249     -0.344064
