# total energy = -183.14163655 eV
 
CRYSTAL
PRIMVEC
0.019588 6.486372 6.300808 
6.373778 0.041127 6.280156 
4.258220 4.319332 0.017985 
PRIMCOORD
27 1
Sc	      4.32731      2.13291      6.17092         0.034910     -0.349477      0.314378
Sc	      6.42042      4.29806      6.20362        -0.088780      0.315661      0.760419
Ti	      4.10644      2.37715      2.18816         0.603644      0.176238     -0.255406
Ti	      2.07046      4.48253      6.19961         0.220087     -0.421422     -0.205445
Ti	      6.36306      6.49208      8.48265         0.397054      0.245040     -0.740697
V	      8.47076      8.70260      8.47521        -0.695987     -0.063516      0.243758
Cu	      8.48671      4.31944      4.23424        -0.209448      0.120561      0.337168
Ni	      4.25378      8.52938      4.24467         0.757862     -0.087597      0.322716
Ni	      2.23312      6.45687      4.21896         0.236676     -0.589004      0.406416
O	      2.29388      2.17804      2.07821        -0.003217      0.266525      0.236353
O	      4.24901      4.19239      2.10438        -0.374149     -0.509395      0.062166
O	      4.32069      2.26999      4.09720        -0.235536     -0.653098     -0.756530
O	      6.50040      4.35505      4.20880         1.689727     -0.185087     -0.369629
O	      6.33457      2.26186      6.32519        -0.129048      0.498048     -0.280982
O	      8.48084      4.40064      6.25188        -0.519466      0.227146     -2.046574
O	      2.08426      4.35235      4.32895        -0.538139      1.056496      0.578209
O	      4.23595      6.51895      4.17430        -0.872321      0.385600      0.134348
O	      4.18696      4.28939      6.40292        -0.053961     -0.188075      1.968056
O	      6.43522      6.51479      6.42136         0.521770      0.030700      0.691969
O	      6.32537      4.52119      8.37607        -1.746922      0.272823      0.023447
O	      8.35728      6.61575      8.38358        -0.305504      1.242117      0.661908
O	      2.15280      6.32438      6.30848         0.013623     -0.459068     -0.870367
O	      4.42920      8.61678      6.42951         0.470878      0.352843      0.207202
O	      4.35858      6.46164      8.43637         0.201064     -0.455192      1.481836
O	      6.35879      8.51776      8.32918         0.906961     -0.521742     -0.337889
O	      6.34544      6.43269     10.39094        -0.562558     -0.679479     -0.287700
O	      8.56350      8.54015     10.42012         0.280779     -0.027645     -2.279131
