# total energy = -194.80140267 eV
 
CRYSTAL
PRIMVEC
0.000426 6.321805 6.267233 
6.396526 0.006858 6.260401 
4.269089 4.214692 -0.000002 
PRIMCOORD
27 1
Sc	      8.57401      6.43350     10.36961         1.434665      0.940220     -0.731061
Ti	      6.47674      8.43668      6.38682         0.918404      0.328010      1.403056
V	      6.36248      0.06965      6.28468        -0.822747      2.314900      3.423803
V	      8.50370     10.50898     10.42778        -0.887844     -0.791572     -0.638343
V	      2.14628      4.15054      2.07393        -0.893873     -0.016989     -1.186425
V	      2.12216      2.09426      4.13537        -0.276949     -2.215090     -2.111062
V	      4.22144      6.40040      6.33655        -0.268683     -0.418540      0.211063
Cr	      6.41886      6.25228      8.33569        -0.167096     -0.452222     -0.641773
Cu	      6.32813      2.20447      4.18895        -0.015201      0.754535     -0.041655
O	      2.08050      2.18569      2.16665         0.041592      2.287912      3.411105
O	      4.12146      4.23364      2.03378        -1.712779      0.005995     -3.477967
O	      4.24415      1.95434      4.19001        -1.455062     -1.942011     -0.039469
O	      6.44100      4.36611      4.19685         1.666476      2.684181     -0.056090
O	      6.41594      1.94464      6.17645         0.015626     -3.640388     -0.974088
O	      8.68214      4.14826      6.20374         2.221188     -0.053207      0.611523
O	      2.17167      4.18720      4.25802         0.046596     -1.586288     -1.479824
O	      4.24519      6.37159      4.32277         2.066468     -0.005518      1.341895
O	      4.10576      4.34752      6.28806        -0.912197      2.695846      0.165689
O	      6.32605      6.45541      6.27298        -1.394644      0.150400     -0.590653
O	      6.50857      4.28604      8.27596         2.477176      1.232419      0.131027
O	      8.44152      6.24217      8.33393        -1.073259     -2.581306      0.845594
O	      2.09137      6.22882      6.27890        -0.374097     -0.484724     -0.778633
O	      4.41693      8.43732      6.30098         0.396705     -0.513524     -0.045464
O	      4.40884      6.30315      8.34632         1.171634      0.004157      0.267474
O	      6.41056      8.33837      8.26685         0.115717     -1.329208      0.107743
O	      6.42106      6.20725     10.36849        -1.076503      0.515550      0.841704
O	      8.47506      8.47541     10.41297        -1.241311      2.116463      0.030832
