# total energy = -201.14496865 eV
 
CRYSTAL
PRIMVEC
-0.009593 6.344145 6.378495 
6.351479 -0.020533 6.389269 
4.249415 4.251627 -0.028524 
PRIMCOORD
27 1
Sc	      8.37903      2.04668      6.38240         0.970736      0.237833     -0.536814
Sc	      4.25768      6.29727     10.60684         0.516755      0.088809     -0.443001
Ti	      8.32785      4.32594      8.44543        -0.689858      1.008814     -1.406676
Ti	      4.40810      2.23021      2.18189         1.162999      0.421655      1.160325
Ti	      4.32760      6.24635      6.37833         1.039661     -0.300553      1.592193
V	      8.35839      6.35141     10.59274        -3.643871      1.614693     -1.256041
Cr	      2.12139      4.23825      6.39712         0.464285     -0.319087      1.199115
Fe	      4.23689      6.31402      2.11867        -1.086167      0.196739     -1.128424
Fe	      6.31848      6.30057      4.21448         1.495279     -0.692015      0.624144
O	      2.20491      2.25285      2.08786        -1.338262      0.116937      1.159833
O	      4.16700      4.14956      2.11833        -0.883438      1.282269     -0.323718
O	      4.25384      2.06697      4.13169        -2.005127     -0.756479     -1.355570
O	      6.46449      4.30600      4.23505         0.071843      1.282252     -0.031063
O	      6.39578      2.07234      6.46434        -0.369524     -0.030396      1.805400
O	      8.50860      4.16667      6.42062        -0.354364     -0.774097      0.494192
O	      2.09997      4.28737      4.04731        -0.105069      0.921908      1.430143
O	      4.11217      6.35462      4.33367         0.047691     -0.188799     -0.539826
O	      4.19917      4.36267      6.41917        -2.040041      0.527940     -0.128449
O	      6.21457      6.43640      6.34797        -0.740382      1.215630     -1.953775
O	      6.48199      4.19079      8.47589         0.954176     -1.840247     -0.136037
O	      8.43985      6.24642      8.49290         1.686499     -0.686873      2.802037
O	      2.20664      6.31781      6.31281         0.368887     -0.722713     -2.103016
O	      4.23826      8.33776      6.48628         0.718945     -0.420849      0.556637
O	      4.23378      6.46016      8.43087         0.026095      0.791201     -0.224556
O	      6.21143      8.53404      8.55224        -0.455253     -0.154014     -2.143382
O	      6.38643      6.29751     10.64396         4.246606      0.090300      0.042571
O	      8.47138      8.41186     10.63934        -0.059101     -2.910860      0.843759
