# total energy = -160.59466633 eV
 
CRYSTAL
PRIMVEC
0.027140 6.258700 6.406896 
6.242343 0.046542 6.386996 
4.176285 4.173723 0.016381 
PRIMCOORD
27 1
Sc	      4.24682      8.28758      8.46218        -0.146009     -0.975327     -0.169519
Sc	      6.15319      6.31545      4.27081         0.786116     -0.216170      0.009261
V	      2.07522      6.24589      8.45066        -0.600737      1.987413     -1.602377
V	      8.51555      8.32032      8.75056         1.867306      0.174191      1.144040
Co	      6.17880      2.10193      4.30072         0.681078     -1.725119      0.253858
Cu	      8.37422      4.30476      8.51867        -0.228614      0.623488      0.330965
Cu	      4.16707      2.12121      6.38901         0.274725     -0.151266      0.428484
Cu	      2.09144      4.19721      6.31273        -0.371400      0.514782     -0.568140
Ni	      6.22484      4.21426      6.35757        -0.008115     -0.276375      0.300751
O	      6.26920      6.47741     10.71557         0.006346      2.693052      0.056710
O	      2.11412      1.94448      2.11526         0.730095     -1.577351      0.771376
O	      4.26704      4.13190      2.11557         1.083868     -0.833923      0.004715
O	      4.25230      2.05420      4.15825         0.874881      0.079029      0.405431
O	      6.26531      4.10313      4.14690        -0.241601     -0.686500     -0.089523
O	      6.07601      2.19486      6.21509        -0.721779      0.643785     -0.987260
O	      8.25291      4.37985      6.58023        -0.330573      0.928891      0.944649
O	      2.08565      4.16630      4.03930        -0.005985     -0.398967     -0.525718
O	      4.22390      6.24472      4.31825        -1.271173      0.131711      0.265010
O	      4.09531      4.06554      6.54246        -0.298217     -0.702028      0.230293
O	      6.42103      6.30552      6.38350         0.550114      0.562260     -0.532256
O	      6.07246      4.28027      8.46971        -0.215539      0.071384     -0.308268
O	      8.35082      6.56062      8.63241        -0.303122     -0.712802     -0.576564
O	      2.11156      6.19955      6.64157        -0.126852     -1.449400      1.661752
O	      4.31198      8.32129      6.44370         1.722386     -0.036110     -0.704855
O	      4.08079      6.11642      8.48563        -1.800642      0.234584      0.076645
O	      6.36620      8.39654      8.74904        -0.399088      1.325300      0.023434
O	      8.31542      8.42667     10.54828        -1.507469     -0.228532     -0.842893
