# total energy = -179.92342412 eV
 
CRYSTAL
PRIMVEC
-0.003787 6.425251 6.320902 
6.365572 0.023396 6.293393 
4.250928 4.272519 0.008561 
PRIMCOORD
27 1
Sc	      6.42591      4.21802      2.24540         1.343618     -1.353607     -1.282563
Sc	      4.21376      2.31188      6.17765        -0.407853     -1.064055     -1.407554
Sc	      6.36806      6.36158      8.38847        -0.728503      0.600446     -0.163198
V	      6.39938      6.43205     12.48410         1.578599      0.244359     -1.961989
V	      4.26631      2.13261      2.25692         2.056134     -1.982944      2.858477
Cr	      8.49410      8.59305     12.60728        -0.429536     -0.194751     -2.159246
Fe	     10.53333      6.58165      8.50521        -0.718714     -0.127188     -0.215214
Cu	      2.09154      4.28487      2.19268         0.131449      0.320525      0.256378
Cu	      4.24973      8.45068      4.25727        -0.026975     -0.524317      0.265395
O	      1.93100      4.28819      4.10208        -1.168303     -0.242270     -0.696785
O	      2.14219      2.07480      2.04188         0.383580      0.381529     -0.779253
O	      4.29738      4.22095      2.00161        -0.342329     -0.521217     -0.303741
O	      4.18137      2.20741      4.03914        -0.083365      0.120146     -2.525189
O	      6.41015      4.23802      4.18582        -0.245622      0.040595      1.661189
O	      6.41828      2.00206      6.37895         0.227986     -1.520526      0.561596
O	      8.65978      4.24377      6.40640         1.195447     -0.190732      0.724358
O	      4.23661      6.41069      4.09496         0.155018      1.443642      0.124782
O	      4.21045      4.25944      6.25230        -0.046625      1.067207      0.109446
O	      6.44038      6.42352      6.36783         0.874058      0.244386      0.476823
O	      6.33075      4.26014      8.26919         0.903065      0.060694      0.807167
O	      8.51830      6.48721      8.33523         0.209214     -0.960980     -0.504424
O	      1.98657      6.52452      6.34070        -2.273421      0.984787      0.740148
O	      4.14251      8.71292      6.55731        -0.574960      1.298348     -0.345463
O	      4.27432      6.58217      8.40961        -0.521839      2.753222      0.334561
O	      6.22540      8.52238      8.47137        -2.605792      0.475830      0.095353
O	      6.36035      6.44146     10.67434        -0.083376     -1.276813      1.578477
O	      8.63557      8.58924     10.64841         1.199046     -0.076318      1.750470
