# total energy = -182.67618306 eV
 
CRYSTAL
PRIMVEC
0.008737 6.511893 6.267838 
6.435183 0.008314 6.269249 
4.285999 4.338096 0.008897 
PRIMCOORD
27 1
Sc	      6.42682      8.71409     10.36390        -0.533208      0.795702     -0.165581
Sc	      6.35607      4.38091      6.35479         0.124232      1.097995     -0.274715
Sc	      4.33428      8.61331      4.24763         0.920961     -0.946195     -0.483994
V	      4.23756      0.04284      4.12645        -3.068736      1.985140     -1.921382
V	      2.21490      6.37019      4.24831         2.374555     -3.800528      1.357940
Cr	      8.56633      6.55296      6.30657        -1.174669      1.685340     -0.198509
Cr	      6.45299      6.55125      8.34707        -0.343570      1.885995     -1.722756
Cu	      2.25222      2.15948      0.14934         0.846295     -0.579811      0.492620
Ni	      4.38576      6.31230      2.08681        -0.153122     -0.531297      0.340117
O	      2.09083      2.17887      2.03186        -0.525079     -0.059580     -0.904215
O	      4.30612      4.35553      2.11788         0.071324      0.454729     -0.023779
O	      4.31639      2.03757      4.27921         0.930557     -2.176811      0.707256
O	      6.60774      4.29303      4.19256         2.447117     -0.700833      0.257010
O	      6.33831      2.24555      6.27931         0.015582      0.426668      0.448159
O	      8.56700      4.49675      6.07243        -0.189282     -0.213421     -0.314599
O	      2.10147      4.48077      4.16910        -0.258893      3.613656      0.088160
O	      4.13794      6.54068      4.11660        -2.486727      0.598211     -0.766411
O	      4.34910      4.21634      6.24874        -0.286454     -2.264724      0.022373
O	      6.53594      6.48135      6.35424         1.556798     -0.637599      1.880591
O	      6.41728      4.49189      8.37883        -0.012694      0.645658      0.073612
O	      8.49671      6.55597      8.43738        -0.440968     -0.215394     -0.220855
O	      2.11603      6.48362      5.99552        -0.117771      1.076259     -1.641631
O	      4.23008      8.63616      6.24746        -1.162924      0.153530      0.784704
O	      4.42657      6.49515      8.58467         1.197058      0.055510      2.252161
O	      6.46323      8.55027      8.39409        -0.127298     -2.603789     -0.156995
O	      6.45973      6.52401     10.38151         0.186032     -0.070463     -0.596727
O	      8.57320      8.76626     10.56638         0.210885      0.326052      0.687445
