# total energy = -93.11172406 eV
 
CRYSTAL
PRIMVEC
2.128540 4.094464 2.055050 
4.159912 -2.002545 -2.047838 
0.026641 4.089750 -4.127310 
PRIMCOORD
16 1
Li	      2.07931      2.07061     -0.00173        -0.006239     -0.006041     -0.010122
Li	      4.15456      2.07552     -2.06789        -0.016795     -0.004944      0.009363
Li	      0.02480      2.06895     -2.08005        -0.001284     -0.004184      0.020507
Li	      4.28164      4.11013     -4.13082         0.025868      0.016748      0.003049
Mn	      6.30133      6.16543     -4.11985        -0.020038      0.004813     -0.030033
Mn	      2.09727      0.05473     -2.06621         0.020778     -0.000765     -0.004765
Ni	      2.09117      4.11231     -2.02113        -0.027815     -0.009892     -0.001274
Ni	      2.10885      2.04233     -4.09389         0.053755      0.001180     -0.045602
O	      4.10755      4.11588     -1.91717         0.119278     -0.120230      0.050890
O	      4.23317      2.09685     -4.25932        -0.042673     -0.005377     -0.045165
O	      4.35525      2.16310      0.01884         0.025288      0.027439     -0.103909
O	      4.00847     -0.06189     -2.05677        -0.014551     -0.012815      0.003546
O	      2.26179      4.08527      0.06719         0.036148     -0.001917      0.124010
O	      2.13708      1.96783     -2.05563        -0.021037     -0.106724      0.119343
O	      2.15494      6.23455     -2.09361        -0.095545      0.121093      0.007171
O	      1.98071      4.11591     -4.18127        -0.035138      0.101617     -0.097009
