# total energy = -187.59960648 eV
 
CRYSTAL
PRIMVEC
0.016394 6.299747 6.398748 
6.336864 0.015763 6.399576 
4.227338 4.202952 0.007801 
PRIMCOORD
27 1
Ti	      6.24845      2.20511      4.42847        -2.037680      1.577138      1.282808
Ti	      2.17045      4.18493      6.29356         0.349373     -0.997347     -2.283855
V	      2.12355      2.10096      0.09145        -2.069583      2.606652      3.460342
Cr	      2.14866      6.27635      4.24080         1.712587     -2.281329     -0.548009
Cr	      4.22833      2.19759      2.15225        -0.957916      2.841261      0.990465
Cr	      6.39283      6.29488      8.51327         1.426398     -2.698753     -0.602073
Fe	      8.44917      4.19927      4.29445        -1.039329      1.467134      1.172107
Fe	      4.34976      4.19452      8.51593         0.858426     -1.425873     -1.316024
Co	      4.25999      6.27962      6.31300         0.811097     -0.515974     -0.759243
O	      2.22474      2.09443      2.01725         1.030066     -0.106583     -3.732250
O	      4.23044      4.12949      2.16903         0.077436     -2.328443      0.037757
O	      4.33983      2.03467      4.21686         0.912104     -0.869996     -1.567784
O	      6.44785      4.07688      4.23143         1.232484     -1.313670     -0.031709
O	      6.34224      2.10361      6.27423         3.079400     -0.071801     -0.591394
O	      8.48606      4.08719      6.22500         0.235115     -3.415406     -0.225968
O	      2.06695      4.26416      4.42124        -0.011615      1.826351      1.385544
O	      4.12616      6.32384      4.28834        -2.227469      0.097008      1.128546
O	      4.06078      4.22670      6.41723        -0.314971      1.586573      1.584203
O	      6.36483      6.44709      6.46626        -1.445430      1.139945      1.537889
O	      6.31673      4.32823      8.50573        -1.387286      2.224191      0.115518
O	      8.38410      6.28699      8.63634        -0.952944      2.069906      1.149010
O	      2.10091      6.29327      6.30270         1.161525      1.102686     -0.659461
O	      4.30598      8.39064      6.53630        -1.439546     -1.311860      0.538846
O	      4.35230      6.38774      8.61030         0.497563     -0.593501     -0.465300
O	      6.35270      8.38444      8.53666        -0.031220     -0.837189     -0.054941
O	      6.36889      6.42635     10.54922         0.377326      0.458833     -1.166259
O	      8.35510      8.36035     10.73867         0.154087     -0.229956     -0.378765
