# total energy = -162.93826060 eV
 
CRYSTAL
PRIMVEC
-0.020431 6.240303 6.431653 
6.217041 0.000683 6.411061 
4.121074 4.123218 0.024355 
PRIMCOORD
27 1
Ti	      4.13978      2.17067      6.41220        -0.136581      0.179536     -1.144205
Mn	      2.10076      6.17023      4.24112        -0.648873      0.366786     -0.590372
Mn	      6.19569      6.20439      8.61136         0.247506     -0.033271     -0.038607
V	      2.09516      8.25503      6.37221         0.648277      0.382879     -1.693525
V	      6.23387      4.04950      2.29985         1.391613     -0.638948      1.930341
Cu	      4.09566      2.06003      2.23583        -0.017985     -0.507199     -0.032475
Cu	      6.23714      4.13580      6.50405        -0.197137      0.308937      0.435803
Ni	     10.28600     10.35308     12.84135        -0.204424     -0.059213     -0.358133
Ni	      4.07959      4.15962      4.29872        -0.143167     -0.049277      0.128338
O	      2.06785      1.89875      2.04542         1.228945     -0.570570     -1.164186
O	      4.26558      4.04000      2.11305         0.253583     -1.138076      0.261348
O	      4.11306      2.07869      4.49674        -0.003697      1.217018      0.306515
O	      6.15689      4.14424      4.05878        -0.855227     -0.020121     -0.768994
O	      6.26663      2.01873      6.41565         0.195910      0.827623      0.266940
O	      8.21697      4.09393      6.39585        -0.480117     -1.179768      0.112555
O	      2.08119      4.24246      4.30093         1.047937      0.905123      0.013562
O	      4.03318      6.17693      4.29998        -0.659478     -1.028718     -0.107889
O	      4.28285      4.08294      6.39154         1.105938     -0.639133     -0.768503
O	      6.29471      6.28532      6.60356         0.702326     -1.491677      1.229779
O	      6.18357      4.32104      8.59073         0.019481      1.267779     -0.778098
O	      8.33412      6.23439      8.39946        -1.979724     -0.049775      1.833501
O	      1.99119      6.29311      6.57145        -0.612368      1.567070     -1.555770
O	      3.90307      8.34127      6.40134        -1.688504      0.442128      0.683424
O	      3.93599      6.27629      8.56180         0.567152      1.260861      0.077895
O	      6.12104      8.38378      8.57603        -1.463747     -0.214931     -0.037822
O	      6.29099      6.22778     10.58166         1.557983     -0.044540     -0.557587
O	      8.22689      8.15553     10.86927         0.124378     -1.060524      2.316166
