# total energy = -102.34818216 eV
 
CRYSTAL
PRIMVEC
0.000125 2.091588 2.091556 
8.241978 -2.146766 2.147291 
0.000142 4.293981 -4.294068 
PRIMCOORD
16 1
Li	      0.00308      0.25400     -0.25038        -0.004098     -0.019363      0.017766
Li	      1.85345      2.12079     -0.03199         0.019541     -0.001854      0.005259
Li	      6.39474     -0.02532      2.12468        -0.018933      0.001197     -0.004191
Li	      0.00286      1.89688     -1.89313         0.000621      0.019415     -0.021185
Ti	      1.91003      4.27086     -2.17313        -0.239681     -0.004045      0.004626
Ti	      6.33696      2.11959     -0.02574         0.244119     -0.001238      0.000640
Ni	      4.12396      2.14876     -2.14570        -0.002518      0.000332     -0.001817
Ni	      4.12393      0.00144      0.00154         0.000233     -0.001072      0.000372
O	      4.22631      2.12070     -0.02607         0.029135      0.003002     -0.003818
O	      4.02194      4.26809     -2.17354        -0.030081     -0.000567      0.002965
O	      6.16935      0.13360     -0.13051         0.118880      0.101236     -0.099610
O	      6.16922      2.01480     -2.01168         0.120605     -0.094909      0.096019
O	      0.00310      2.12128     -0.02605         0.000830     -0.001876      0.000174
O	      2.07856      2.28281     -2.27922        -0.118403      0.096631     -0.094926
O	      0.00289      4.26799     -2.17348         0.000028      0.000179     -0.000073
O	      2.07859     -0.13024      0.13386        -0.120277     -0.097067      0.097798
