# total energy = -179.32029360 eV
 
CRYSTAL
PRIMVEC
-0.007217 6.285958 6.332357 
6.291655 0.003954 6.321171 
4.174782 4.163500 0.022233 
PRIMCOORD
27 1
Ti	      2.14892      0.03958      2.19318        -0.118645      0.580581      1.400770
Ti	      0.07400      4.08387      4.14436         1.498379     -0.552003     -0.152127
V	      8.36936      2.12331      6.35178         0.633619      0.360163      1.562409
Cr	      4.17185      4.15587      0.04432         0.132165     -0.604311      1.271956
Cr	      6.23202      2.09403      4.20051        -2.420136      0.281684     -1.307185
Cr	      8.38634      6.26335     10.51246         1.640970     -1.400325     -0.206352
Fe	      8.21427      6.35458      6.34238         0.882053      0.097059     -0.075638
Ni	      2.13995      4.15965      2.13681        -0.097313     -0.534350      0.707403
Ni	      4.18389      4.21759      8.34461         0.292304      0.672129     -0.400951
O	      2.08671      2.02344      2.07008        -0.113322      0.034787     -2.583013
O	      4.25791      4.15651      2.02594        -0.334265     -0.029663     -1.940216
O	      4.28504      2.06311      4.32801         1.995925      0.122795      0.821161
O	      6.26653      4.10662      4.11408         0.588937     -0.941586     -1.311311
O	      6.32623      2.02161      6.23534         1.012243     -0.730985     -0.772376
O	      8.44210      4.13611      6.41168         0.683239     -0.277596      0.750155
O	      1.99341      4.25054      4.19411        -1.085494      1.039551     -0.992372
O	      4.09995      6.37717      4.26277        -1.745774      0.791879     -0.217134
O	      4.20039      4.10919      6.36390        -0.316398     -1.039316      0.423421
O	      6.33311      6.25451      6.33091        -0.649529      0.203503      0.137888
O	      6.26633      4.22261      8.58937        -0.169963     -0.220787      0.659562
O	      8.38869      6.23697      8.49314        -0.241632      0.415144     -0.151739
O	      2.00686      6.36143      6.29881        -0.591768      1.360561     -0.160103
O	      4.07815      8.45102      6.19137        -2.404200      0.897458     -0.286911
O	      4.03556      6.28701      8.40982        -0.593131     -1.175828      0.262118
O	      6.26354      8.46955      8.52295         1.107388      0.701201      1.202450
O	      6.35535      6.29748     10.61601         1.017404      0.473528      1.022579
O	      8.37170      8.30283     10.57421        -0.603057     -0.525273      0.335554
