# total energy = -175.42607904 eV
 
CRYSTAL
PRIMVEC
0.013381 6.325971 6.226877 
6.311492 0.013834 6.226383 
4.208365 4.217954 0.008530 
PRIMCOORD
27 1
Ti	      0.09794      6.35948      6.24369         1.485732      0.313247      0.371679
Mn	      6.31516      4.21786      6.23301        -0.245173     -0.742653     -0.315753
V	      4.29837      8.34732      8.33886         2.629632     -1.594041     -0.695944
V	      4.17658      2.12617      6.19333         0.900141      1.014976     -0.033014
Fe	      4.21273      8.39858      4.14434        -0.923935     -0.014553      0.477955
Fe	      8.45757      6.33639     10.34333         0.227152      0.370835      0.907209
Fe	      4.09212      4.35704      8.27862        -0.922721      0.733489      0.615620
Co	      6.31544      6.28180      4.15618        -0.349202     -0.662315     -0.381102
Co	      2.13228      4.18936      2.07611         0.503079     -0.117250     -0.276299
O	      2.35220      2.11437      2.08473         0.398815      1.738607      1.574377
O	      4.25776      4.09746      1.98086        -1.970807     -1.529419     -0.254619
O	      4.23638      2.10322      4.12461        -1.504621      0.039660      0.357497
O	      6.29381      4.23560      4.34145        -0.040565      1.414656      1.011751
O	      6.22192      2.03604      6.25533        -2.376032      0.894549     -0.221959
O	      8.50169      4.26206      6.24859        -1.252397      1.426253      1.786782
O	      2.03054      4.26278      4.11645        -0.828651     -0.816529     -1.933540
O	      4.15082      6.41210      4.14484         0.503779      1.429763      0.024019
O	      4.19338      4.19887      6.32553         1.811566     -1.970671      0.194923
O	      6.43298      6.28348      6.22794         1.372259     -1.489272     -1.452708
O	      6.25669      4.22936      8.25928         0.980366      0.044741     -0.457587
O	      8.37745      6.40106      8.28125        -0.111629     -1.027361     -0.800400
O	      1.98760      6.38319      6.12989        -1.084740     -0.198170     -1.226625
O	      4.22470      8.53352      6.26311         0.046346      0.887410      1.053866
O	      4.19475      6.35893      8.30068         0.070229      2.166107      0.044656
O	      6.19896      8.45116      8.32903        -1.780152     -0.143309      0.002559
O	      6.38513      6.22385     10.47720         1.098228     -1.209470      0.405817
O	      8.47720      8.38155     10.27797         1.363300     -0.959279     -0.779163
