# total energy = -149.61146473 eV
 
CRYSTAL
PRIMVEC
0.002427 6.083349 6.356378 
6.357280 0.038140 6.322079 
4.263410 4.057749 -0.000747 
PRIMCOORD
27 1
Ti	      2.08687      3.99537      2.26847        -0.010902     -0.808100      0.962653
Mn	      4.28754      6.08454     10.52237        -0.571611     -0.080524     -1.406654
Fe	      4.23729      2.10545      6.29197        -0.533911      0.276429      0.064879
Fe	      6.34500      4.14523      6.23864        -0.249789      0.677715     -0.357450
Co	      4.26312     10.10118      6.37363         1.383953     -0.368589     -0.385849
Cu	      6.34228      2.06532      8.42220         0.446520      0.130466     -0.005653
Cu	      4.29837      4.06360      4.15554         0.324345     -0.091404     -0.054120
Cu	      4.17888      8.04936      4.31577        -0.372102     -0.315929      0.261222
Cu	      6.30207      8.14643      6.46625        -0.025590     -0.300810      0.404208
O	      1.90679      6.00208      6.36935        -1.955783     -0.785996      0.053635
O	      4.27923      8.19828      6.45778         0.716810      1.274082     -0.881152
O	      6.43369      8.13895      8.37309        -0.028503     -0.008120     -0.674453
O	      2.03339      2.11506      2.09019        -1.251494      0.429463     -0.147747
O	      4.10559      4.08442      2.05869        -0.446453      0.654511     -0.006951
O	      4.29773      2.03700      4.29014         0.065145      0.193070      1.207282
O	      6.62977      4.05476      4.32140         0.240598      0.002478      0.880701
O	      6.30736      2.02002      6.39848        -0.672619     -0.310296      0.899309
O	      8.59434      4.11755      6.27215         0.201380      0.660094     -0.148200
O	      1.94379      4.06893      4.12395        -0.615177      0.072988      0.239738
O	      4.21488      6.03839      4.07231         0.033335      0.210988     -1.178296
O	      4.34998      4.10873      6.16453        -0.173121     -0.784984     -1.010157
O	      6.46613      6.13830      6.32225         1.193614      0.240098      0.065222
O	      6.51071      4.06993      8.20598         0.304781     -0.731152      0.211719
O	      8.56851      6.03889      8.31419         1.034649     -0.061387     -1.215486
O	      4.29603      6.11353      8.68527         0.040171      0.038024      1.230089
O	      6.23557      6.06409     10.76788        -0.555507     -1.064630      0.955764
O	      8.58206      8.24070     10.58955         1.477262      0.851515      0.035746
