# total energy = -169.78487631 eV
 
CRYSTAL
PRIMVEC
-0.016463 6.425136 6.315110 
6.337046 0.012664 6.286421 
4.225495 4.264954 0.007444 
PRIMCOORD
27 1
Ti	      8.33247      2.21460      6.33754        -2.025075      1.783388      0.886457
Ti	      4.16349      0.16278      4.14814        -0.845537      0.754482      1.499305
Mn	      2.10298      6.37801      4.18716         0.394373     -0.604109     -0.784929
Fe	      4.19589      4.27897      0.05233        -1.343209      1.715879      0.192474
Fe	      6.28850      4.22506      2.15049        -0.193046      1.082554      1.123306
Fe	      0.04716      4.18921      4.14361         0.205301     -0.388975     -0.725313
Fe	      4.28935      4.22588      8.23357         0.630833     -0.102371     -0.536380
Co	      4.27084      8.53579      8.40279        -0.710651      0.206150      0.784100
Cu	      6.42529      8.35629      6.25157         1.183081     -0.833086     -0.034267
O	      2.18018      1.99995      1.93230         1.324586     -0.902926     -0.501291
O	      4.31266      4.24589      2.02911         0.905296     -1.524895     -0.980361
O	      4.29896      1.98861      4.16454        -0.104395     -0.544415     -1.546122
O	      6.48761      4.29956      4.12900         1.084972      0.120784     -0.848796
O	      6.47327      2.03844      6.27676         0.872976     -1.289153      0.103892
O	      8.46745      4.18394      6.21549         1.105974     -1.260349     -1.019022
O	      1.99648      4.22825      4.25464        -0.414339      1.809857      0.991689
O	      4.04710      6.49170      4.23077        -1.351437      0.908975     -0.128621
O	      4.32078      4.27035      6.37010        -1.404419      0.056580      0.562050
O	      6.34035      6.46154      6.30966        -0.019131      0.914888      0.011729
O	      6.25977      4.30571      8.48877        -1.198557     -0.258301      1.078730
O	      8.41399      6.52699      8.56935         0.036884      0.775477      1.184493
O	      2.02667      6.50734      6.22771        -0.512697     -0.390514     -0.309993
O	      4.03943      8.66467      6.29658         1.123358      0.318517      0.210566
O	      4.15018      6.34497      8.53334        -0.556596      0.267134     -0.023148
O	      6.36366      8.67894      8.32497         0.090482     -0.122739     -1.279224
O	      6.31457      6.37084     10.59108         0.731034     -1.110301      0.675672
O	      8.48833      8.68759     10.59533         0.989939     -1.382533     -0.586998
