# total energy = -168.39131494 eV
 
CRYSTAL
PRIMVEC
0.028093 6.188703 6.260955 
6.372920 0.014335 6.275174 
4.257580 4.144217 0.000340 
PRIMCOORD
27 1
Ti	      4.23273      0.07586      4.21795        -1.257160      0.683069      1.136262
Mn	      2.13256      0.07356      2.11422         0.324479      1.055840      0.127852
Mn	      2.21133      4.10835      6.23797        -1.194087      0.725153     -0.963191
V	      4.26155     10.27488      6.24831        -0.167779     -1.646229      0.034610
V	      2.08679      4.10456      2.24537        -0.271339     -0.838099      2.192517
Co	      6.40202      2.09099      4.23821        -0.450120      0.604156      0.929279
Co	      6.41536      6.21925      8.30969         0.093591     -0.895985     -1.628490
Ni	      4.24140      6.20549      2.12199         0.015734      0.214749     -0.075874
Ni	      4.30381      4.11722      8.34211         0.473778     -0.088717     -0.194328
O	      2.07708      2.07853      2.04553        -0.887302      0.978683      0.148255
O	      4.09699      4.13247      1.96610        -0.436657      0.714777     -1.017766
O	      4.37321      1.95375      4.20989         1.619005     -0.533976      0.008162
O	      6.49790      4.16834      4.12319         0.661847     -1.364292     -1.213192
O	      6.40987      1.86870      6.28495         0.128067     -1.275161     -0.604584
O	      8.62787      4.07813      6.23563         1.787548      0.097200     -0.170096
O	      2.16504      4.11565      3.98842        -0.009687     -0.049837     -1.756564
O	      4.25365      6.19657      4.08030        -0.067931      0.006696     -0.245831
O	      4.13412      4.15272      6.31872        -0.663262     -0.304123      0.970357
O	      6.37082      6.35129      6.31219         0.418807      0.673437      2.011956
O	      6.51678      4.11682      8.26668         0.939459      0.859383      0.321089
O	      8.49842      6.08908      8.33590        -0.681661     -0.591321      0.093875
O	      2.05624      6.11670      6.41560        -1.003028     -0.888887      0.725940
O	      4.45393      8.41920      6.24209         0.985950      1.918547     -0.178359
O	      4.33839      6.18911      8.50387         0.562908     -0.918143      0.386703
O	      6.44848      8.39529      8.44850         0.626488     -0.837595     -0.334949
O	      6.31109      6.19346     10.49608        -0.174944      1.389711      0.326810
O	      8.45985      8.35263     10.42145        -1.372702      0.310965     -1.030443
