# total energy = -153.74486869 eV
 
CRYSTAL
PRIMVEC
0.023061 6.061443 6.521677 
6.121173 0.003965 6.541994 
4.092801 4.065456 -0.009735 
PRIMCOORD
27 1
Sc	      6.23600     10.09671      8.77234         0.326827     -0.947147      0.016978
Ti	      4.11085     10.03384      6.55195         0.310978     -0.415434      0.518371
V	      6.25730      6.13282      8.64870         2.514878      2.743436     -0.490028
Co	      6.12085      4.01457      6.48521         0.389895     -0.211867      0.183696
Cu	      4.11290      0.03538      4.38419        -0.249256      0.307343      0.174744
Cu	      6.12675      2.07075      8.67028        -0.413982     -0.071866     -0.238656
Cu	      3.95760      4.00896      4.37744        -0.521643     -0.535050      0.294590
Cu	      0.05111      3.99649      4.33799         0.314246     -0.302401      0.114063
Cu	      4.06583      6.14469      6.48820        -0.400658      0.357819      0.166384
O	      4.19176      4.18723      6.35571         1.090949      1.031636     -0.857464
O	      8.02376      6.05041      8.70353        -2.200294      0.052015     -0.066707
O	      8.37481      8.16186     10.87539         0.952783      0.513746     -0.034967
O	      1.96246      1.99779      2.18537        -0.470403      0.586468      0.009938
O	      4.07178      4.13303      2.01677         0.416325      0.830739     -0.053245
O	      4.07127      2.09326      4.36849         0.104291      0.064918     -0.206171
O	      6.21730      4.03884      4.38446         0.125887      0.030774      0.844683
O	      6.09839      1.98243      6.59268        -0.018388      0.609795      0.874249
O	      8.20961      4.08864      6.38588        -0.598972      0.078630     -1.145872
O	      1.93909      4.04471      4.38605        -0.415765     -0.084742     -0.140610
O	      4.06749      6.10192      4.13267         0.060702      0.161904     -0.377515
O	      6.04811      6.07420      6.71127        -0.825972     -1.185350      1.171720
O	      6.12484      4.03948      8.46412        -0.160141      0.407317     -0.882018
O	      1.98503      6.05838      6.61475         0.301292      0.117311      0.570730
O	      4.07911      8.16452      6.64683        -0.078092     -0.209585     -0.669611
O	      4.23409      6.07272      8.88873         0.335481     -0.017002      0.640306
O	      6.18534      8.02574      8.72804        -0.074476     -3.048712      0.042624
O	      6.15255      5.99762     10.91839        -0.816494     -0.864695     -0.460213
