# total energy = -197.02568251 eV
 
CRYSTAL
PRIMVEC
0.039015 6.401866 6.345419 
6.338903 0.028903 6.355677 
4.206323 4.255351 0.038904 
PRIMCOORD
27 1
Ti	      2.25603      8.63016      6.36586         0.303912     -0.166584     -1.420719
Ti	      2.21460      6.44867      8.42034        -0.405057      0.645328     -1.452559
Ti	     10.42292      6.53304      8.49483        -0.941576      0.283160     -0.069880
Ti	      4.14527      4.28872      4.30132        -1.305057      1.047269      1.134305
Ti	      6.25949      8.33753      6.41828         0.743387      0.053152     -2.605913
Mn	      6.37734      8.45837     10.61889         0.618792     -0.050186      0.931979
Cr	      4.23851      0.04549      4.26594         0.063061     -0.918651      2.700444
Co	      4.20982      8.56780      8.40315        -0.284219      0.646596      0.499083
Cu	      6.46425      6.22695      8.46795         0.861914     -1.301858     -0.271778
O	      2.04723      2.07321      2.05038         1.719873     -0.808904     -0.620996
O	      4.30979      4.33448      2.27085         0.878045     -1.376333      0.191130
O	      4.19872      2.16941      4.25642         1.816151     -0.520416     -2.210782
O	      6.30519      4.27596      4.18384         0.550906     -1.791002     -0.742503
O	      6.50626      2.13071      6.48798         1.067230      0.154126      0.311728
O	      8.47180      4.16083      6.33544        -0.071973     -0.709840     -2.173615
O	      2.22315      4.27455      4.36236         1.453146      0.059309      1.166601
O	      4.24530      6.20810      4.14895        -0.398195     -1.033879     -0.743092
O	      4.11710      4.28913      6.23175        -1.242528     -0.307082     -0.370095
O	      6.30174      6.52444      6.41665         0.315023      0.765049      1.610374
O	      6.36833      4.11634      8.50265        -0.480640      0.240388     -0.226501
O	      8.59650      6.40492      8.46608        -0.308644      0.558364      0.188780
O	      2.17392      6.49619      6.47353        -0.108151      0.418439      1.606986
O	      4.28186      8.51397      6.29790        -0.527365      0.270877      2.650873
O	      4.11197      6.40534      8.59978         0.805369      1.929884      0.693109
O	      6.37727      8.74772      8.37142        -2.100259     -0.971977      0.309998
O	      6.24543      6.40713     10.57069        -1.195736      1.868695     -1.700304
O	      8.48454      8.65185     10.75902        -1.827410      1.016075      0.613348
