# total energy = -163.92952906 eV
 
CRYSTAL
PRIMVEC
0.004922 6.265793 6.281224 
6.167958 -0.000477 6.286784 
4.116889 4.185877 -0.005411 
PRIMCOORD
27 1
Sc	      2.14603      2.05513      4.12780         0.776229     -0.575976     -1.179235
Mn	      2.06883      2.11016      0.01079         0.643032     -0.236925      0.363046
Mn	      6.13614      2.13744      4.14276        -0.322238      0.487439     -0.854371
Mn	     10.19355      6.25883      8.42212        -0.518915      0.353565      0.876818
Mn	      2.11007      4.20295      6.29280         0.221812      0.540544     -0.208043
Cr	      6.16699      6.21698      8.42765         0.017030     -0.215202      0.530195
Cu	      4.07326      6.26582      6.31389        -0.660166      0.484968      0.204010
Ni	     10.25131      4.18016      6.27949        -0.210694     -0.239778     -0.081984
Ni	      6.15432      4.17304      6.30133         0.184873     -0.199040     -0.203254
O	      4.25926      6.25981      8.32502         1.433392     -0.103922     -0.429885
O	      1.93748      2.09674      2.03177        -1.603182     -0.124911     -0.538960
O	      4.08922      4.37724      2.02023         0.063545      0.690642     -0.522914
O	      4.19336      2.09717      4.17174         1.126144     -0.155263     -0.003094
O	      6.17980      4.10726      4.21548        -0.186523     -0.527952      1.295275
O	      6.24293      2.08836      6.39856         0.708069      0.165676     -0.346848
O	      8.23191      4.00865      6.28448        -0.287134     -1.143863     -0.152922
O	      2.04988      4.11884      4.39530        -0.073491     -0.226760      1.142781
O	      4.14097      6.28251      4.02233         0.596094      0.103407     -0.240269
O	      4.08461      4.31956      6.27732        -0.225027      0.334662      0.041403
O	      6.12591      6.24247      6.31674        -0.569981      0.518570      0.310756
O	      6.16588      4.15762      8.35627        -0.126896      0.580622     -1.044980
O	      8.27515      6.28377      8.33090        -0.217927     -0.145841     -0.064159
O	      2.07790      6.35776      6.31741        -0.124459     -0.287947     -0.013600
O	      4.03122      8.34811      6.28599         0.198269     -0.243566      0.026017
O	      6.19502      8.25725      8.25858         0.106412     -1.585477      0.220447
O	      6.17628      6.42254     10.40944        -0.206416      1.604366      0.035512
O	      8.09568      8.35755     10.67986        -0.741852      0.147962      0.838258
