# total energy = -188.53279696 eV
 
CRYSTAL
PRIMVEC
0.015331 6.373841 6.487599 
6.392309 0.046115 6.456621 
4.258579 4.225236 0.034412 
PRIMCOORD
27 1
Sc	      0.00956      2.09862      2.13356         1.110963     -0.594277     -1.511833
Mn	      8.51857      4.31380      8.58001         0.496683     -0.411262     -1.038491
Mn	     10.62203      8.56925     10.85056        -0.886614      0.564860      1.111610
V	      4.25808     10.52567      6.49947         0.907581     -1.728176      0.359438
V	      2.23045      2.11954      4.36078         4.032238     -2.164596      0.991493
V	      8.49768      6.47095     10.87584        -1.174901      1.573571      2.437188
Cr	      6.43836      4.24106      6.44196        -0.297913      0.122323     -1.109514
Cr	      4.17715      4.34327      8.59053        -2.830367      2.273213     -0.745205
Fe	      4.30626      4.19004      4.45823         0.814836     -1.371868      0.560797
O	      2.07221      2.14244      2.48584        -0.863214      1.252045      1.058069
O	      4.28155      4.27663      2.12469        -1.674092      0.368018     -0.701635
O	      4.14073      2.25665      4.29733        -3.147448      0.797951      0.219468
O	      6.32048      4.34468      4.43256        -0.673493      1.823812      0.757776
O	      6.40452      2.13285      6.53805        -0.009943      0.209377      0.613343
O	      8.52040      4.27840      6.47245        -0.092318      0.101607      1.963131
O	      2.21162      4.25650      4.39812        -0.728497      0.337217     -1.547009
O	      4.28432      6.29063      4.34065        -0.949073      0.779827     -0.168344
O	      4.40721      4.23043      6.46122         1.783323      0.089440      0.613316
O	      6.39323      6.27930      6.25842        -0.100274     -1.369018     -1.662230
O	      6.34480      4.26802      8.50078         0.215387     -0.307264      0.322292
O	      8.56272      6.44582      8.80445         0.237274      0.043154      1.887371
O	      1.96288      6.43553      6.38145        -1.477107     -0.258001     -2.783315
O	      4.20973      8.72215      6.56045         0.086984      3.127706     -0.926758
O	      4.27125      6.29294      8.60662         0.080136     -2.312853     -0.033405
O	      6.49621      8.47653      8.61674         2.332999     -0.056559     -0.018855
O	      6.43034      6.46220     10.98417         1.471414     -1.418547      0.692025
O	      8.54481      8.43682     10.68438         1.335435     -1.471701     -1.340724
