# total energy = -149.26899170 eV
 
CRYSTAL
PRIMVEC
0.045060 6.310905 6.314626 
6.208590 0.027514 6.332215 
4.141765 4.222062 0.015350 
PRIMCOORD
27 1
Sc	      4.03754      6.30080      6.25227        -0.799793     -0.081588     -0.010375
Sc	      6.27389      6.31242      8.46015         0.114032     -0.497719      0.090820
Cr	      8.31316      8.42070      8.48772         0.798376     -0.454777      0.158208
Fe	      6.23173      0.09008      6.34285         0.844901     -0.404217     -0.434786
Cu	      4.11284      2.19966      2.16282         0.119197      0.270709     -0.117774
Cu	      4.17865      8.39753      4.23369        -0.098954     -0.217030     -0.221590
Ni	      6.20868      2.23461      4.26620         0.409745      0.516379      0.180892
Ni	      6.22986      6.29401      4.21349        -0.156496     -0.315678      0.024971
Ni	      4.17503      2.14324      6.28781        -0.045431      0.020571      0.324769
O	      6.20984      4.32661      4.27600         0.104602     -0.082180     -0.104315
O	      1.99422      4.02307      4.20363        -0.888713     -0.405203      0.094670
O	      2.23067      2.08461      2.22448         0.665147      0.005220      0.138577
O	      4.17035      4.16529      1.93240        -0.073829     -0.744040     -0.630332
O	      4.16952      2.16294      4.24866        -0.081336     -0.028837      0.251569
O	      6.22347      2.10091      6.23201        -1.275020     -0.754759     -0.688590
O	      8.52715      4.31345      6.34589         0.708937      1.252355      0.229214
O	      4.16951      6.32667      4.22509         1.064096      1.463002     -0.110813
O	      4.11490      4.23538      6.54634         0.146543     -0.734309      0.828515
O	      6.22300      6.31060      6.35620         0.531187     -0.109648     -0.185291
O	      6.13325      4.22833      8.52591        -1.026491      0.354102      1.070621
O	      8.31987      6.52788      8.39382        -0.290590      1.208921     -1.003978
O	      1.97419      6.32954      6.26129        -1.147313      0.015467      0.264184
O	      4.15019      8.44405      6.25856         0.087890      0.446243     -0.194389
O	      4.18403      6.21065      8.36921         0.290605      0.015632     -0.410977
O	      6.24589      8.41515      8.57928        -0.036663     -0.243453      0.922666
O	      6.28347      6.30625     10.60618         0.079176     -0.456746      0.515124
O	      8.35341      8.47432     10.34281        -0.043808     -0.038417     -0.981590
