# total energy = -174.93760751 eV
 
CRYSTAL
PRIMVEC
0.048289 6.381373 6.211677 
6.295131 0.049781 6.211327 
4.213706 4.271612 0.015614 
PRIMCOORD
27 1
Sc	      8.42529      6.45310      6.30132        -0.956510     -1.244635      0.897726
Ti	      2.08549      6.42472      8.13570         0.244605     -0.380874     -2.157432
Ti	      4.37778      6.39229     10.40190         1.437730     -0.846783      0.313013
Ti	      2.15841      6.23625      4.22576        -0.401369     -1.354714      1.098663
Cr	      4.28774      4.34424      8.24497         0.910905      1.750605      0.085515
Co	      6.29197      6.42939      4.19791        -0.449699      0.810420      1.325425
Ni	      6.33919      2.19447      4.19412         0.265714     -0.306806     -0.134685
Ni	      6.35128      2.22341      8.22589         0.512636     -0.231109      0.208820
Ni	      4.25520      4.28057      4.19163        -0.518976      0.239365      0.077586
O	      4.22897      8.53612      6.23139        -0.069154     -0.023334      0.071981
O	      2.11028      2.03484      2.16858        -1.119469     -0.425596      1.572170
O	      4.37179      4.33357      2.14979         0.662979      1.300714      0.322813
O	      4.24553      2.05838      4.14503        -0.383133      0.325713      0.511206
O	      6.40660      4.30898      4.05453        -0.070478      0.201471     -0.248686
O	      6.26521      2.15961      6.21092        -0.139119      0.358557      0.028734
O	      8.40862      4.32216      6.06890         0.202276      0.493788     -0.880006
O	      2.14922      4.39744      4.10785         0.491150      0.229317      0.304189
O	      4.08882      6.36558      4.12762         0.724808     -0.308977     -0.885635
O	      4.21674      4.24126      6.24384         0.291586     -0.637864      0.367170
O	      6.34218      6.44486      6.11969        -0.192961      0.050338     -2.865777
O	      6.23789      4.25434      8.28653        -2.154257     -0.739901     -0.145781
O	      8.40638      6.57428      8.41156         0.965068      1.463414     -0.208551
O	      2.12645      6.42223      6.17333        -0.069209      0.108311     -0.027593
O	      4.18803      6.35770      8.36674        -0.672508     -1.777219      0.392491
O	      6.45685      8.76040      8.33731         1.472472      0.189005      0.683066
O	      6.34202      6.47949     10.32187        -0.319099      0.772835      0.348596
O	      8.44754      8.65825     10.29808        -0.665989     -0.016040     -1.055020
