# total energy = -166.21207621 eV
 
CRYSTAL
PRIMVEC
-0.030931 6.381934 6.144906 
6.110926 -0.003504 6.119183 
4.086793 4.250337 -0.016264 
PRIMCOORD
27 1
Sc	      6.15100      4.24514     10.11472         0.554615      0.314074     -1.434719
Mn	      0.02954      6.37582      6.15346        -0.048388     -0.157543     -0.045141
Mn	      2.00709      8.48905      6.12802         0.107935     -0.589674     -0.519448
Mn	      4.03421      4.24844      4.04105        -0.157365      0.244248     -0.243711
Mn	      6.12404      4.26751      6.13046         0.049969      0.631374      0.301833
Cr	      8.11067      6.37693      6.13732        -1.689679     -0.189336      0.798930
Co	      4.08092      8.45163      8.20510         1.238870     -0.356396      0.769147
Ni	      4.07989      6.37664      2.07228         0.330352     -0.015651      0.733263
Ni	      4.04039      6.36584      6.20196         0.027145     -0.759697     -0.038534
O	      2.09590      2.15584      1.89049         0.943271     -0.152469     -0.567878
O	      4.09483      4.19781      2.07451        -0.007538     -0.327492     -0.254279
O	      4.05361      2.32226      4.06206        -0.052640      0.872410     -0.388911
O	      5.99157      4.25912      4.22077        -0.657722      0.057379      0.502016
O	      6.09900      2.24168      6.14022         0.648545     -0.121309      0.525463
O	      8.12028      4.31183      6.07335         0.167510     -0.188991     -0.074176
O	      2.12576      4.24113      4.11309         0.696106      0.129614      0.038648
O	      4.07933      6.25514      4.11790        -0.056817     -0.642015     -0.188694
O	      4.14005      4.19030      6.01939         0.710702     -0.358760     -0.535542
O	      6.14412      6.17587      6.13597         0.602372     -0.802225     -0.081908
O	      6.09721      4.19543      8.07162        -0.099528     -0.928405     -0.690315
O	      8.19305      6.39118      8.04934         0.545270      0.089984     -1.701544
O	      1.96261      6.50531      6.15084        -0.191659      1.948087     -0.222477
O	      4.01352      8.44274      6.17335        -1.402450      0.277378      0.962526
O	      4.04511      6.54421      8.14339         0.153237      1.875609     -0.001202
O	      5.95852      8.50380      8.16009        -2.767233     -0.337045      0.153806
O	      6.09930      6.30282     10.37816         0.063711     -0.597314      0.964470
O	      8.17963      8.49972     10.31815         0.291411      0.084164      1.238379
