# total energy = -103.58256089 eV
 
CRYSTAL
PRIMVEC
-2.069113 4.247665 -2.067563 
2.069127 4.247679 2.067530 
6.181480 0.000136 -2.041384 
PRIMCOORD
16 1
Li	      6.17954      0.00480     -2.04201        -0.000929     -0.008507      0.000038
Li	      2.10887      2.12524     -0.05169         0.011467     -0.000327      0.013868
Li	      4.06937      2.12400     -1.99265        -0.011036     -0.000111     -0.015212
Li	      6.17953      4.24475     -2.04196         0.000049      0.009244     -0.000019
Ti	      1.97591      6.37254      0.08633        -0.118644     -0.003133      0.103413
Ti	      4.20613      6.37241     -2.13507         0.117821      0.000881     -0.095690
Ni	      4.12317      4.24865      0.01270         0.002242      0.001547     -0.002052
Ni	      2.05405      4.24854     -2.05481         0.002908     -0.001328     -0.001879
O	      2.11768      6.37245     -1.98924         0.019982     -0.000136      0.015508
O	      2.08259      4.43338     -0.01183        -0.125304      0.136122      0.100697
O	      4.05887      6.37245     -0.05316        -0.023234      0.000182     -0.010729
O	      4.09436      4.43441     -2.02972         0.124685      0.131734     -0.104964
O	      6.17935      6.37244     -2.04241         0.002505      0.000706     -0.000428
O	      0.01341      4.06349     -2.07933        -0.125716     -0.134088      0.101368
O	      6.16346      4.06316      0.03787         0.123982     -0.133336     -0.105113
O	      6.17994      2.12482     -2.04198        -0.000778      0.000549      0.001193
