# total energy = -175.32340781 eV
 
CRYSTAL
PRIMVEC
0.035442 6.500458 6.218250 
6.495120 0.026750 6.226494 
4.333521 4.342820 0.014036 
PRIMCOORD
27 1
Sc	      8.68832     10.66416     10.32625        -0.077934      1.263660     -0.216604
Sc	      2.11575      2.24653      4.08491        -1.307676      0.490238     -0.357218
Sc	      4.30957      4.40512      4.07431         0.031503      0.974105     -1.031553
Sc	      8.73445      6.49949      6.40731         0.484078     -0.345337     -1.384171
Cr	      4.38809      8.65255      8.24708        -0.147484      0.401995     -0.131904
Cr	      6.53421      4.31736      6.37589         0.729694     -0.497830      3.180813
Co	      0.19550      6.42062      6.15629         0.185471      0.693148     -0.976862
Cu	      4.25978      6.54440      6.24681        -0.475461      0.277020     -0.579745
Ni	      6.50673      8.73968      6.27699         0.046962      0.232950     -0.230354
O	      6.53172      4.37631      8.15892        -0.114277      0.029535     -2.920641
O	      2.40752      2.16428      2.07689         2.281741     -0.043472     -0.355557
O	      4.33392      4.18612      1.96571         0.009594     -1.336535     -0.982831
O	      4.29202      2.21497      4.08146        -0.359263     -0.309836     -0.542891
O	      6.48402      4.42011      4.27705         0.368759      0.310845      1.055010
O	      6.49727      2.38843      6.25299        -0.875149      0.094828      0.069141
O	      8.54298      4.40890      6.21613        -0.379590      0.745927     -0.656339
O	      2.28399      4.27387      4.23552         0.477381     -0.460727      1.284830
O	      4.38956      6.47790      4.23857         0.449739     -0.727480      1.422695
O	      4.44475      4.30361      6.22313        -0.066513      0.282109     -0.298201
O	      6.58220      6.36527      6.22836        -0.309703      0.333430     -0.335753
O	      8.69213      6.52573      8.32310         0.222579      0.049834      1.991226
O	      2.11794      6.44610      6.21225         0.142477     -1.064236      0.192083
O	      4.43970      8.73943      6.27993         0.710676     -0.519579      1.014090
O	      4.31971      6.71499      8.19422        -0.199335      1.193131     -0.477522
O	      6.26753      8.65947      8.26809        -1.683164      0.185010     -0.792683
O	      6.41881      6.54497     10.58588        -0.104326     -0.098133      2.132312
O	      8.68230      8.75228     10.33679        -0.040777     -2.154598     -0.071372
