# total energy = -148.52035257 eV
 
CRYSTAL
PRIMVEC
-0.003337 6.184814 6.268601 
6.312820 0.020226 6.244905 
4.221892 4.121096 -0.000210 
PRIMCOORD
27 1
V	      6.49223      2.06727      4.35561         1.843056      0.692473      0.493585
V	      6.16264      6.23493      8.23721        -2.163047      0.918688     -0.057584
Fe	      4.17382      4.18287      4.16696         0.916665      0.436285     -0.140068
Co	      4.19750      8.20241      4.20956        -0.128872     -0.505441      1.510756
Co	      2.04211      4.32189      6.20293         0.152094      1.760599      0.816035
Cu	      8.42646      4.11285      8.29050         0.235731     -0.421519     -0.112952
Cu	      8.41959      6.20195      6.25255        -0.072452     -0.149547     -0.073635
Ni	      8.43333      4.17622      4.23460        -0.667879     -0.273461     -0.551691
Ni	      0.03337      2.05278      2.08439         0.248980      0.027848     -0.595283
O	      2.05166      2.14769      2.05336        -0.441091      1.274714      0.093570
O	      4.12666      4.15701      2.16269        -1.358094      0.419594      1.052232
O	      4.44364      2.08154      4.21726        -0.070402      0.364966      1.540479
O	      6.32865      3.92788      4.11515        -0.605289     -0.945860      0.008234
O	      6.46946      2.06109      6.10769        -0.809622     -0.110388      0.040849
O	      8.41064      4.25483      6.24002         0.061362      1.491779     -0.103899
O	      2.14839      4.08567      4.21972         0.051862      0.167562      0.607244
O	      4.20572      6.15386      4.11604         0.012449      0.109500     -0.684940
O	      4.11982      4.04139      6.17333        -1.464666     -0.946329     -0.855768
O	      6.17185      6.20030      6.48980         0.783157      1.030645     -0.376823
O	      6.36066      4.25541      8.48576         1.215282     -0.504427      0.862040
O	      8.31739      6.12439      8.27414         0.478350     -1.126903     -1.416065
O	      2.11942      6.08095      6.33717        -0.249636     -3.232538     -0.221762
O	      4.31703      8.22886      6.10838         1.429167      0.376739     -1.603649
O	      4.38615      6.16168      8.46015         1.577622     -0.027776      0.544952
O	      6.34138      8.06570      8.41298         0.021221     -0.882345     -0.365354
O	      6.32242      6.32533     10.35318        -0.831356     -0.736604     -0.583579
O	      8.29688      8.27412     10.40618        -0.164590      0.791748      0.173072
