# total energy = -147.37902496 eV
 
CRYSTAL
PRIMVEC
0.008674 6.135395 6.188190 
6.235604 0.024474 6.172525 
4.185254 4.107913 -0.011732 
PRIMCOORD
27 1
Ti	      2.15925      4.18964      2.16102        -0.408527      1.077459     -0.066080
Mn	      2.13807      8.16113      6.12790        -0.246142      0.500539      1.413158
Mn	      6.18936      4.09818      6.15704         0.448971     -0.250627      0.500739
Fe	      2.28628      6.09098      8.29390        -0.048818     -0.343967      0.679644
Cu	      6.24263      6.19921     12.22051        -0.258230      0.490840     -0.322299
Cu	      6.17818      6.20674      8.29815         0.294039     -0.140369      0.199059
Ni	      6.26275      6.14692      4.10625        -0.036390      0.001930     -0.061232
Ni	      4.17999      4.10330      4.11786         0.249822      0.093946     -0.186001
Ni	      2.06220      4.10445      6.15121         0.054306     -0.019639     -0.053121
O	      6.22929      6.17007     10.29743        -0.040829      0.162160      0.218891
O	      2.08580      2.05021      1.99096         0.139058     -0.285221      0.032195
O	      4.07797      4.13589      1.98604        -0.035230      0.066136      0.063163
O	      4.08385      2.22722      4.11614        -0.497415     -0.174584     -0.046235
O	      6.22114      4.09318      4.14310        -0.707817      0.805617     -0.004707
O	      6.37864      2.11652      6.17340         1.208069     -0.321502     -0.227259
O	      8.15686      4.01270      6.24785         0.500000     -0.972825      0.090428
O	      2.08393      4.08703      4.08486         0.654884     -0.724683      0.127641
O	      4.25605      5.98881      4.09222         0.459416     -0.076059      0.001482
O	      4.27292      4.07587      6.09899        -0.190835      0.122982     -0.414465
O	      6.23881      6.07381      6.18868        -0.321456     -0.501185      0.037118
O	      6.29022      4.16081      8.09331         0.604332      1.032009     -0.574144
O	      8.25322      6.06184      8.21722        -1.325516     -0.797718      0.053393
O	      2.17958      6.22770      6.30465        -0.957532     -0.178459     -0.046612
O	      4.09683      8.32632      6.14846        -0.362835      0.728115     -0.398824
O	      4.16182      6.14121      8.30404         0.786578      0.066097     -0.058870
O	      6.28307      8.23506      8.13790        -0.104740     -0.340024     -0.463546
O	      8.35345      8.18400     10.47867         0.142839     -0.020970     -0.493517
