# total energy = -177.23664352 eV
 
CRYSTAL
PRIMVEC
0.030400 6.216094 6.404010 
6.261763 -0.000696 6.435372 
4.201199 4.191561 -0.027923 
PRIMCOORD
27 1
Sc	      0.15044      4.19432      4.32058        -0.134653      0.368277     -0.094129
Sc	      4.14668      6.15667      6.34808         1.151552     -0.408800     -0.210313
Mn	      8.39315      8.29525      8.56175         0.640105     -0.362788     -0.028590
Mn	      6.33607      6.24430      8.52322        -0.274851     -0.815395      0.673565
V	      4.09226      2.20530      2.11630        -2.807709      1.740199     -1.186556
V	      6.26750      2.17297      4.32705         1.015616      0.367817      1.846118
Co	      4.09319      4.18639      4.22183        -0.712949      0.504575     -0.842631
Co	      8.37170      6.16772      6.46515        -0.343345     -1.255059      0.227750
Ni	      8.31733      2.13766      6.47210        -0.546247     -0.020617      0.319107
O	      2.21037      2.07592      2.10337         3.164396      0.280565     -0.436725
O	      4.24274      4.00713      2.09873        -0.260656     -2.487300      0.868200
O	      4.23205      2.07728      4.11373         1.453002      1.426443     -0.222374
O	      6.19122      3.96877      4.18580        -1.396190     -1.832804      0.216183
O	      6.24884      2.03556      6.22550        -0.559280      0.051967     -2.532136
O	      8.37664      4.18377      6.38198        -0.150776      1.360180     -0.004009
O	      2.10863      4.14783      4.33108         2.710988      0.100705     -0.063351
O	      4.26327      6.27924      4.28320        -0.349212     -0.891302      0.922677
O	      4.18492      4.07188      6.62905         0.047436     -0.777627      0.208753
O	      6.32277      6.21744      6.62585         1.076341     -0.240519      0.376013
O	      6.17066      4.29393      8.63704        -1.449738      0.703436      0.411162
O	      8.22915      6.19759      8.58463        -0.140985      2.004169     -1.006159
O	      2.15618      6.28843      6.41812        -0.605833      1.009140     -0.115443
O	      4.18271      8.31706      6.43833        -0.752222     -0.532231      1.092432
O	      4.36221      6.41015      8.47582         0.468966     -0.571721     -0.273918
O	      6.33516      8.20921      8.61260         0.208336     -0.399819      0.836403
O	      6.29009      6.33642     10.49739        -0.006781      0.669337     -0.691118
O	      8.32982      8.37090     10.55336        -1.445310      0.009171     -0.290912
