# total energy = -149.87397074 eV
 
CRYSTAL
PRIMVEC
0.038179 6.241119 6.189629 
6.238475 0.022915 6.205452 
4.185984 4.198470 -0.012045 
PRIMCOORD
27 1
Ti	      2.02416      0.15326      1.90891        -0.951035      1.108789     -0.924036
Mn	      6.32465      4.17477      6.20273         0.114752     -0.044887     -0.641854
Mn	      6.24034      6.29441      8.25562         0.027038     -0.112500     -0.014132
Fe	      6.21022      2.09879      4.20014        -0.568741     -0.293614      0.830252
Cu	      4.17862      4.18720      4.15930        -0.084762     -0.546752     -0.228198
Cu	      2.12248      6.23679      4.13027        -0.443590     -0.144403      0.684223
Cu	      8.37967      8.34170      8.24387         0.377241     -0.233706     -0.156698
Ni	      2.16896      4.10429      2.05729         0.490965     -0.836802     -0.500403
Ni	      4.19513      6.35248      6.15934         0.089901      0.453725     -0.088499
O	      4.21817      8.31296      6.18555        -0.107028     -0.501192      0.095983
O	      8.30834      8.25853     10.24785        -1.001612     -1.170593     -0.388496
O	      2.10230      1.99581      2.10950         0.203404     -0.217311     -0.230861
O	      4.29338      4.19142      2.08629         0.409064      0.066252      0.814599
O	      4.26168      2.19066      4.11830         1.497218      1.386806      0.238002
O	      6.24839      4.19233      4.21252        -1.273538     -0.827733      0.034155
O	      6.27377      2.28332      6.14832         0.246894      0.996431     -1.085906
O	      8.21360      4.21412      6.24642        -0.584010     -0.366231      0.667451
O	      2.19843      4.23823      4.06978         1.075323      1.305925     -0.439368
O	      4.09601      6.17293      4.15970        -0.956103     -1.152378      0.632893
O	      4.32726      4.23859      6.20731         0.542633      0.844049      0.107795
O	      6.27497      6.16932      6.32542        -0.898459     -0.624361      0.830373
O	      6.23610      4.18352      8.13100        -0.159314      1.609461     -0.251648
O	      8.30552      6.28777      8.33110        -1.571436      0.074772      0.283975
O	      2.08751      6.26408      6.23740         1.080766      0.055284      0.360881
O	      4.12451      6.16462      8.26739         0.985433     -0.431654     -0.753947
O	      6.39360      8.43788      8.28494         0.270583     -1.120538      0.976104
O	      6.28439      6.31302     10.19314         1.188413      0.723164     -0.852639
