# total energy = -157.40256780 eV
 
CRYSTAL
PRIMVEC
-0.009157 6.114548 6.261261 
6.252021 -0.003283 6.256303 
4.174547 4.078897 -0.009584 
PRIMCOORD
27 1
Mn	      0.09305      1.95350      2.08377         0.450582     -0.232712      0.568740
Mn	      2.08424      6.04099      4.25054        -0.298628      0.818513      0.951844
V	      6.22031      2.15648      4.17857         0.430014      0.575378     -0.527542
Fe	      4.20348      4.15142      8.33163        -0.939262      0.754425      0.401670
Co	      4.12784      2.09614      2.02337        -0.492326      0.238389     -2.236441
Co	      2.04914      2.12321      4.19135        -0.396817      1.337832     -0.386514
Co	      8.31421      6.07441      6.24028        -0.167232     -1.207116     -0.222490
Co	      6.26498      6.09607      8.35289        -0.588055      0.132223      0.867992
Cu	      6.27921      4.08965      6.25878         0.017464     -0.116838     -0.018968
O	      2.13995      2.03990      2.14530         0.124031      0.000626      1.069576
O	      4.19259      4.12729      2.05988         0.069595     -0.649473     -0.013291
O	      4.24955      2.03276      4.02289         0.783540     -0.031099     -0.188194
O	      6.29480      3.92893      4.05402         0.024213     -0.929625      1.018770
O	      6.11184      1.96958      6.18482        -0.437096      0.777952     -0.227874
O	      8.21650      4.23532      6.21904        -0.531204      1.811326      0.102466
O	      2.04597      4.14659      4.20393         0.121416     -1.557666     -0.007064
O	      4.05787      6.09613      4.08952         0.258823     -0.345842     -1.484871
O	      4.28481      3.89143      6.33898         0.553774     -0.843445      0.499143
O	      6.37845      6.12080      6.34775         0.803833     -0.864829      0.018021
O	      6.16661      4.09493      8.44017        -0.029768     -0.296797     -1.307462
O	      8.23565      6.15002      8.45418         0.246706      0.692062     -0.193107
O	      2.09107      6.11234      6.08328        -0.006218     -0.071622     -1.135905
O	      4.14462      8.16614      6.45005        -0.036203      0.131106      2.700123
O	      4.34221      6.08473      8.34316         1.255384      0.708767     -0.213801
O	      6.26111      8.04363      8.41191        -0.385019     -0.766468      1.282461
O	      6.34747      6.20312     10.30829         0.940412      0.701145     -0.786078
O	      8.22115      8.05833     10.39029        -1.771959     -0.766210     -0.531206
