# total energy = -207.15861461 eV
 
CRYSTAL
PRIMVEC
0.065757 6.419344 6.403340 
6.347545 0.105414 6.364596 
4.279622 4.302015 0.021340 
PRIMCOORD
27 1
Sc	      6.31479      0.13945      6.33318        -1.125634      1.741766      0.036917
Sc	      6.27482      2.32262      8.46794        -0.768741      0.309990     -1.893390
Ti	      8.50686      2.33557      6.33057        -2.370336      1.961839     -0.663794
Ti	      6.37357      4.42856     10.59659         0.771316     -0.816222     -0.767724
Ti	      6.51046      6.43266      4.50412         1.257351      0.337063      1.962715
Ti	      6.36459      6.50817      8.49815         0.262829      0.047732     -2.271053
Mn	      2.25203      6.32816      4.30957         0.347780     -0.239435     -0.077417
Cr	      2.24616      6.41141      8.54531         0.631141     -1.427492      1.169985
Fe	      4.36876      8.57859      8.58138         0.561532      0.391665      1.074225
O	      2.08909      2.05181      2.09122         1.204758     -0.844751     -0.130974
O	      4.40520      4.37673      2.08079         1.113175     -1.131819     -0.353321
O	      4.08574      2.20070      4.22718        -1.467957     -0.364400     -1.412042
O	      6.40972      4.50624      4.15745         0.205393      0.699103     -1.608470
O	      6.46602      2.21108      6.37165         1.645084     -0.651241      1.251721
O	      8.55804      4.20644      6.41786         0.342762     -1.698910     -0.112733
O	      2.00660      4.15213      4.25432        -1.426831      0.888809      0.328776
O	      4.39662      6.56936      4.23439        -1.069655      1.093120     -0.538413
O	      4.29286      4.33462      6.36117         0.054677     -0.060131     -0.004256
O	      6.43182      6.46950      6.38895         0.068513     -0.023025      0.664152
O	      6.38586      4.42654      8.57480        -0.275968      1.322048      2.305494
O	      8.44307      6.46846      8.53658        -0.720388      0.104348      2.050222
O	      2.16996      6.53701      6.47644        -0.249382      0.431155     -0.651716
O	      4.24664      8.64678      6.38315        -0.680491      0.243132     -0.134216
O	      4.36560      6.45872      8.52264         0.697801      1.822172     -0.021131
O	      6.45762      8.62077      8.56706        -1.901775     -0.776516     -0.182043
O	      6.38753      6.48336     10.60056         1.603943     -1.765710     -0.970779
O	      8.64154      8.62955     10.76836         1.289101     -1.594294      0.949266
