# total energy = -163.95840245 eV
 
CRYSTAL
PRIMVEC
0.018546 6.142705 6.268736 
6.471344 0.039522 6.248672 
4.348501 4.115071 -0.006994 
PRIMCOORD
27 1
V	      2.32708      4.05175      2.09814         2.138143     -1.808809     -2.782213
V	      4.43148      2.07506      6.16145         2.689111     -0.076365     -2.097684
V	      8.75704      6.32088     10.40668         0.252708      1.955687      0.925070
Cr	      6.50472      8.22741      6.26878         0.113897      1.063477      1.333173
Fe	      4.34303      6.17877      6.31023        -0.410836     -0.584882      1.268654
Fe	      6.41627      6.16459      8.40462        -0.896596      0.035856     -0.514188
Cu	      6.46865      2.14503      4.09901        -0.200670      1.061840      0.229064
Cu	      6.48924      4.19038     10.43100        -0.432722      0.221571      0.244018
Ni	      6.48577      6.07514      4.10533         0.275264     -0.962446     -0.326939
O	      2.13852      2.15763      2.10215         0.362418      2.165065      0.799316
O	      4.10073      4.12933      2.06112        -2.467863     -0.382905      0.249304
O	      4.20398      2.01385      4.34409         0.214585      0.071605      2.287410
O	      6.46944      4.07359      4.13595        -0.053480     -0.448899     -0.029463
O	      6.25051      2.09916      6.21188        -2.349950      0.036723     -0.980886
O	      8.60870      4.30400      6.39009        -0.039450      1.109573      2.279768
O	      2.29088      4.23211      4.17767        -1.045172      0.117883     -0.187303
O	      4.30196      6.14951      4.26116        -0.703636      1.138650      0.531788
O	      4.19059      3.98519      6.31116        -1.396350      0.059622     -0.165677
O	      6.48698      6.20783      6.25727        -0.102279      0.749604     -0.044571
O	      6.71840      4.22561      8.44761         0.261456      0.762582      1.405420
O	      8.62536      6.15761      8.37545        -0.669253     -0.929088      1.002106
O	      2.31125      6.11196      6.16927         0.627729     -1.061748     -2.098249
O	      4.48355      8.16879      6.17954         1.237200     -0.775271     -1.369795
O	      4.44818      6.11634      8.25954         1.268477      0.141698     -1.261269
O	      6.47431      8.14918      8.24817        -0.182723     -1.241926     -0.026184
O	      6.64808      6.27868     10.40089         1.482447     -0.512917     -0.463568
O	      8.66475      8.08682     10.44791         0.027545     -1.906180     -0.207101
