# total energy = -150.91143472 eV
 
CRYSTAL
PRIMVEC
-0.001048 6.261771 6.183829 
6.194899 0.002340 6.180551 
4.131034 4.173449 0.000335 
PRIMCOORD
27 1
Ti	      8.25460      4.25753      8.10091         0.003554      1.077578     -0.573978
Mn	      2.07825      4.19212      6.18982         0.030395      0.945696      0.088098
Mn	      4.14620      6.23782      6.19300        -0.965076     -0.402716     -0.000761
Co	      6.20891      6.21726      4.14409        -0.167766     -1.053129     -0.370824
Co	      6.21465      6.23424      8.25644         0.935756     -1.176905      1.083673
Cu	      8.19326      2.07046      6.14707        -0.130787      0.206820      0.017136
Cu	      6.22822      8.34142     10.31157         0.143578      0.026239      0.155442
Ni	      4.10500      2.08593      2.09696        -0.086033      0.038281     -0.165748
Ni	      4.16632      4.16927      4.10708         0.009524      0.613573      0.171996
O	      8.17121      8.35336     10.39206        -0.652700     -0.032929      0.766297
O	      2.03942      2.17449      2.16603         0.812984      0.651507      0.030033
O	      4.01204      4.17383      2.07670        -0.090525     -1.194380      1.476355
O	      4.05969      2.12146      4.11497         0.139900      0.977509     -1.137532
O	      6.17277      4.27398      4.10823        -1.328620      0.515624      0.004719
O	      6.25324      2.05609      6.08070         0.786130      0.054383     -0.671244
O	      8.28676      4.18576      6.27182        -0.293596     -1.123960      0.720944
O	      2.07844      4.02739      4.24779         1.180107     -0.825571     -0.154062
O	      4.27182      6.23441      4.25885         0.899904     -1.326253      0.340755
O	      4.00948      4.30173      6.20254        -0.401041      0.297730     -1.329690
O	      6.09547      6.32695      6.18065        -0.164650      0.938523      0.336672
O	      6.27594      4.29140      8.26852         0.208413      1.931820     -0.098025
O	      8.17450      6.18113      8.26012        -1.889362     -0.836991     -0.114764
O	      2.21623      6.12845      6.20007         0.910849     -0.122370     -0.082893
O	      4.18626      8.20368      6.19504        -0.242298     -0.541846      0.964803
O	      4.27753      6.26442      8.11115         0.836523      0.798063     -0.214047
O	      6.16933      8.20687      8.14257        -0.524463     -0.972700      0.291753
O	      6.17172      6.35920     10.10878         0.039299      0.536401     -1.535105
