# total energy = -150.68364983 eV
 
CRYSTAL
PRIMVEC
0.030866 6.193000 6.178112 
6.254944 -0.002567 6.211832 
4.142188 4.123268 0.026217 
PRIMCOORD
27 1
Ti	      4.10365      4.09598      0.08987        -0.965605      0.716899      1.621701
Mn	      4.18532      6.24592     10.20810        -0.218240     -0.757376      0.414005
Mn	      4.14492      6.18774      2.12255        -0.128146     -1.450260      0.023132
Fe	      6.13583      4.24301      6.21955         0.517329     -0.622586     -0.085164
Co	      8.34833      6.19939     10.31510        -0.266476     -0.288018     -2.401873
Ni	      2.06103      2.05602      0.06221        -0.183295      0.105781      0.516861
Ni	      6.29781      4.14071     10.26987         0.155103      0.204484     -0.512719
Ni	      2.16466      4.10241      6.20297         0.503231     -0.760502     -0.364054
Ni	      4.16934      6.20016      6.29745         0.155640     -0.091965      0.306054
O	      6.27718      8.26059      8.06456         0.255952     -0.082709      0.141796
O	      1.89967      2.05330      2.07308        -0.395011      0.127523     -0.821437
O	      4.13440      4.20869      1.97879         0.185554      1.303483     -0.872550
O	      4.20725      1.89353      4.11470        -0.360884     -0.626965     -0.519808
O	      6.42040      4.07290      4.26462         1.124106      0.673315      0.479294
O	      6.24312      1.99884      6.35336         0.857613      0.236212      0.350107
O	      8.41414      4.10285      6.08905        -0.120291     -0.631656     -0.773764
O	      2.06854      4.26495      4.26086        -0.904190      1.115996      0.344653
O	      4.01928      6.21607      4.06963        -0.750504      1.035220      0.184313
O	      4.19075      4.17903      6.14404        -0.335200      0.687040      0.406477
O	      6.18811      6.19994      6.21237        -0.533429      0.273825      0.057745
O	      6.29134      3.97637      8.18449        -0.046149     -0.681536      0.182175
O	      8.46074      6.14984      8.42168         0.122623      0.248420      2.016081
O	      2.05641      6.18068      6.07135         0.124334      0.149645     -0.640340
O	      4.19988      8.31010      6.21876         0.024248     -0.206060     -0.674553
O	      4.19078      6.17091      8.36935         0.007505      0.344574     -0.376293
O	      6.31018      6.20180     10.40426         0.010573     -0.825322      0.291382
O	      8.40198      8.23109     10.40664         1.163609     -0.197460      0.706780
