# total energy = -162.12994504 eV
 
CRYSTAL
PRIMVEC
-0.006240 6.302470 6.306807 
6.099177 0.003563 6.296671 
4.077748 4.207024 -0.009573 
PRIMCOORD
27 1
Mn	      4.10670      2.11290      6.32506         0.979979     -0.197853      0.382862
Cr	      6.04989      4.22595      6.32531        -0.803336     -1.127004      1.070149
Cr	      6.05705      8.42472      6.28052        -1.415902      0.929892     -0.132058
Fe	      8.15545     10.44164     10.50945         0.749470     -0.063660     -0.105726
Fe	      1.94555      2.16524      4.01904        -0.424718      0.689404     -0.684234
Fe	      2.12581      6.33753      4.18728         0.211123      0.183431     -0.642098
Fe	      6.05784      6.29812      8.45926        -0.110612      0.417164      0.644925
Co	      6.07713     10.46236      8.40893        -2.123174      0.175463     -0.112315
Cu	      2.12643      8.37596      6.37997         0.281230      0.124959      0.302372
O	      4.26498      4.18284      2.08046         2.847968     -0.081842     -0.014227
O	      2.06633      2.02166      2.08480        -0.161087     -1.609472     -0.590767
O	      3.99219      2.01925      4.38385        -0.808041     -0.713574      0.565877
O	      6.14162      4.30154      4.26650         0.693433      0.890019      0.388404
O	      5.99773      2.24766      6.32485         0.236707      1.433629      0.035001
O	      8.08903      4.37658      6.27308        -1.093019     -0.379234     -0.920311
O	      2.03747      4.17758      4.24224        -0.002243     -0.082238      1.682386
O	      4.06838      6.30740      4.15676         0.176198      0.156530      0.184038
O	      4.04636      4.02391      6.28953        -0.243582     -0.593458     -0.100585
O	      6.18084      6.31581      6.31537         0.466930      0.224740      0.106274
O	      6.07033      4.36338      8.27949         0.086315      0.547735     -1.715176
O	      8.08940      6.32148      8.36803        -1.266066      0.040479     -0.044151
O	      2.04219      6.16010      6.18856         0.295800     -0.697561     -0.007202
O	      4.10375      8.35996      6.29732         1.318228     -0.357028     -0.107715
O	      3.98996      6.27031      8.52895        -0.045023     -0.101621      0.972385
O	      6.10125      8.39559      8.28413         0.023447      0.242565     -1.610562
O	      6.11437      6.34003     10.40471         0.056689     -0.130890     -0.874735
O	      8.12488      8.41616     10.68409         0.073285      0.079424      1.327191
