# total energy = -186.19384186 eV
 
CRYSTAL
PRIMVEC
0.014066 6.186667 6.284307 
6.341879 -0.011080 6.309417 
4.222725 4.136286 -0.002174 
PRIMCOORD
27 1
Ti	      4.18307      0.12898      4.13995        -0.372531      0.738044      0.067364
Ti	      6.34267      4.14387      6.42909         0.172331      1.430069      0.362178
Ti	      0.05122      4.06487      4.13939         0.659419      1.042700     -0.115832
V	      8.43233      6.22818     10.43811        -1.330625      0.316956     -1.834316
Cr	     10.50605      4.15430      6.33442        -1.301791     -0.183349     -0.161580
Fe	      6.32821     10.26537      8.30871         0.215003      0.673545      0.861433
Fe	      4.22380      6.22023      6.42420         1.955744     -0.199664      0.822423
Co	      6.37693      2.05554      8.36465         0.311384      0.402863     -0.708080
Co	      4.18554      4.02239      4.18002        -0.368868     -1.979064      0.538702
O	      2.05832      1.91400      2.11490        -2.004354     -1.351088     -0.183876
O	      4.23692      4.08426      2.05738         1.480171      1.640691     -0.168328
O	      4.23061      1.97949      4.20277         0.110915      0.252716     -0.214288
O	      6.47034      4.08524      4.28896         0.175881     -0.090810     -0.555347
O	      6.32025      2.07043      6.30896         0.086401     -0.976737      1.979090
O	      8.43423      4.10689      6.19519         0.531115      0.029189     -0.870922
O	      2.01989      4.18268      4.17579        -0.034141      2.022339      0.003913
O	      4.18920      6.24258      4.22144        -1.380239     -0.336972     -0.114831
O	      4.39285      4.15406      6.23158         0.771874      1.668739     -0.748219
O	      6.35200      6.02145      6.33271        -1.774939     -1.246023      0.172614
O	      6.40792      4.15860      8.38683        -0.039438     -2.083705     -0.056259
O	      8.51842      6.20362      8.52743         1.482663      0.031819      2.416357
O	      1.99667      6.20776      6.21316         0.626498     -0.048235      0.039517
O	      4.23007      8.29032      6.11983         0.067906     -0.247012     -0.903014
O	      4.20399      6.20406      8.52353        -1.817953     -0.169406     -1.429989
O	      6.36042      8.36657      8.35882        -0.012748      0.686531      0.133617
O	      6.29417      6.12066     10.57340         1.060637     -0.762245      0.709199
O	      8.63839      8.27023     10.44993         0.729686     -1.261892     -0.041527
