# total energy = -103.20206663 eV
 
CRYSTAL
PRIMVEC
0.000133 0.000022 -4.048182 
-2.022725 9.075465 -2.022767 
4.046281 0.000038 -0.000125 
PRIMCOORD
16 1
Li	      0.00147      0.00115     -4.04798        -0.003327      0.001415      0.001878
Li	      2.02375      2.57735     -4.04725        -0.005741     -0.038584     -0.000833
Li	      2.02472      6.49803     -4.04805        -0.008411      0.039951      0.000383
Li	      0.00143      9.07452     -4.04679        -0.001769     -0.001034     -0.001812
Ti	     -0.00043      2.16041     -2.02179         0.003031     -0.684259      0.000167
Ti	      0.00258      6.91484     -2.02499         0.000326      0.705512     -0.000167
Ni	     -0.00258      4.53788     -4.04766         0.010780     -0.000700      0.001737
Ni	      2.02167      4.53786     -2.02359        -0.002223     -0.000602     -0.000782
O	      2.02261      2.37641     -2.02361        -0.000514     -0.047690     -0.005813
O	      0.00139      8.69921     -2.02098        -0.004805     -0.633129     -0.016831
O	     -0.00151      4.53800     -2.02347         0.001154      0.001904     -0.001587
O	      2.02265      6.69930     -2.02348        -0.001354      0.047874      0.005314
O	     -0.00097      2.37564     -4.04955         0.002642     -0.046297      0.004801
O	      2.02075      4.53789     -4.04774         0.005582     -0.000957      0.000403
O	      0.00031      0.37712     -2.02580         0.000976      0.610656      0.016707
O	     -0.00039      6.70014     -4.04567         0.003653      0.045941     -0.003567
