# total energy = -175.56072700 eV
 
CRYSTAL
PRIMVEC
0.020069 6.217479 6.308636 
6.375036 0.015522 6.313280 
4.241823 4.139600 0.018808 
PRIMCOORD
27 1
Ti	      2.24804      8.21292      6.23870         0.192412     -0.243297     -0.860090
Ti	      2.24702      4.14459      2.17600         0.636117     -1.300031      0.366655
V	     10.58112      8.24531     10.52709        -0.718686     -0.002407      3.303885
V	      6.27018      6.32302      8.43510        -1.825494      4.276899      0.683328
Fe	      6.55281     10.25857      8.51958         0.707591     -0.597643     -0.445151
Fe	     10.57555      6.20405      8.45151         0.419481      0.004091     -0.028793
Fe	      6.31499      4.16256      6.17507         0.519043      0.529344     -0.567928
Cu	      4.25221      4.13305      4.29018        -0.164680      0.134370      0.260226
Ni	      4.26335      2.08678      6.25975        -0.085541     -0.345971     -0.330879
O	      2.13823      2.13595      2.03224        -1.681005      0.175004     -0.341420
O	      4.16623      4.09682      2.16357        -0.084020      1.629702      1.091822
O	      4.25092      2.19192      4.29188         0.027693      0.932683      0.503923
O	      6.49546      4.19074      4.17451        -1.293144     -0.013356      0.492550
O	      6.45137      2.14484      6.35287        -0.422836      1.100174      1.277026
O	      8.43031      4.09126      6.44625        -1.419805      0.255919      0.661349
O	      1.95934      4.14609      4.07108        -1.482527     -0.112192     -0.835972
O	      4.20653      6.22342      4.16380         0.043246      1.687220     -1.486115
O	      4.36189      4.13931      6.28132         1.100104     -0.491954     -1.390532
O	      6.39584      6.16605      6.51556         0.476481     -1.321990      0.988919
O	      6.44366      4.22884      8.38421         0.180107     -0.629446      1.134929
O	      8.39030      6.12888      8.37584         0.590059     -0.813962     -0.705434
O	      2.10679      6.32030      6.49799         0.360773      0.525088      0.939100
O	      4.12355      8.32145      6.26312        -0.677894     -0.261113     -3.392172
O	      4.29874      6.23483      8.41883         1.717575     -0.072302      0.006042
O	      6.39349      8.27489      8.41484        -0.095962     -2.902557      0.021594
O	      6.36821      6.15167     10.29502        -0.236409     -2.247056     -1.721623
O	      8.56735      8.25988     10.66482         3.217319      0.104784      0.374760
