# total energy = -174.00446055 eV
 
CRYSTAL
PRIMVEC
0.008356 6.314999 6.243692 
6.261460 0.002286 6.249604 
4.179742 4.219249 -0.003556 
PRIMCOORD
27 1
Ti	      8.28429      8.48962      8.32234        -1.270363      1.394064      0.276717
V	      4.22069      8.39087      8.26525         0.423537      0.372424     -1.996417
V	      4.14387      4.18156      4.15177        -0.831885     -1.085867     -0.550518
Cr	      6.25933      4.20949      6.26574         0.884073      0.847728     -0.741101
Fe	      8.31169      2.12756      6.20836         0.744989     -0.503689     -0.588239
Co	      6.24616      6.34174      4.22511         0.175906      0.446053      0.077281
Co	      4.19277      6.26977      2.05744        -0.207601     -0.398533     -0.460547
Co	      8.25984      6.37045     10.47335        -0.130057      0.191316      0.724751
Co	      6.29243      6.31548      8.28115        -0.163859      0.323830      0.561937
O	      2.20129      2.07582      2.08511         0.614586      0.009736      0.130545
O	      4.19175      4.10385      2.21266         0.192991     -0.484907      1.718574
O	      4.20144      2.15611      3.99382        -1.343714      1.929413     -0.301705
O	      6.03621      4.23771      4.27255        -0.854684      1.131292      1.211626
O	      6.31295      2.16005      6.27062         1.242773      1.392891      1.387648
O	      8.27330      4.11841      6.22555        -2.155096     -1.162855      0.066303
O	      2.26324      4.22392      4.22610         1.538060      0.120023      0.179555
O	      4.08479      6.20287      4.11098        -0.096052     -1.315702     -1.001238
O	      4.21245      4.21583      6.31505         1.726339     -0.300599     -0.510950
O	      6.29137      6.20971      6.24437         0.069811     -2.065883      0.389095
O	      6.13767      4.18039      8.28751        -0.482949      0.397625     -1.251839
O	      8.35351      6.49463      8.35754        -0.466383      0.231209      1.288854
O	      2.10049      6.46622      6.17598        -0.211943      1.347150     -1.955185
O	      4.16540      8.45000      6.45083        -1.225466     -0.056910      2.374114
O	      4.20505      6.31381      8.37333         1.700511      0.515923     -0.099552
O	      6.30637      8.47892      8.29974        -0.988163     -1.700341      0.019993
O	      6.41880      6.28786     10.36412         1.311697      0.035939     -1.259559
O	      8.38463      8.41831     10.33091        -0.197055     -1.611332      0.309857
