# total energy = -150.60450120 eV
 
CRYSTAL
PRIMVEC
0.030317 6.164212 6.387359 
6.206988 0.021186 6.396633 
4.118849 4.096439 0.033950 
PRIMCOORD
27 1
Ti	      6.18235      4.10490      2.21471        -0.243832     -0.202268      1.742829
Mn	      2.06672      4.08237      2.19723        -0.205513      0.129798      0.613586
Mn	      4.09673      8.17224      4.31735        -0.286322     -0.181496     -0.160464
Fe	      6.21040      6.24621      8.59882         0.387722      0.338759      0.850873
Cu	      4.14913      2.10170      6.33921        -0.237181      0.309255      0.101219
Cu	      6.20657      4.07100      6.30434        -0.128817     -0.590038     -0.466052
Cu	      4.14031      6.14894      6.33991        -0.769573     -0.083279     -0.591764
Cu	      4.11808      2.06351      2.25042        -0.107320      0.212670      0.140121
Ni	      6.24845      6.21706     12.69383         0.411094      0.095622     -0.629967
O	      4.18010      8.22522      6.20995         0.109996     -0.143754     -0.435766
O	      8.44413      8.22248     10.63710         0.868669     -0.007092     -0.008222
O	      2.13739      2.09581      2.12425         1.430259     -0.142665      0.107749
O	      4.08145      4.07471      2.10661         0.226998     -1.342166     -0.833500
O	      4.12645      2.06200      4.42554        -0.002262      0.004774      0.381763
O	      6.22438      4.11721      4.03545         0.120281      0.075721     -0.142951
O	      6.10891      2.09815      6.40248        -0.913467      0.819816     -0.097577
O	      8.22955      4.14205      6.59859        -0.548052      0.630974      0.209849
O	      1.99894      4.12471      4.08478        -0.829139     -0.122756     -0.634683
O	      4.14357      6.25989      4.39340         0.066588      0.660518      0.770629
O	      4.22984      4.10988      6.39464         1.628998      0.010905     -0.088268
O	      6.22850      6.07711      6.52885         0.037949     -1.255005      0.401899
O	      6.34521      4.12896      8.70393         0.639326      0.580560      0.110229
O	      8.20837      6.04183      8.45577        -0.362270     -0.581617     -0.846362
O	      2.05908      6.16081      6.55724         0.342944      0.159983      0.100591
O	      4.12646      6.22297      8.38710         0.050444      1.142334     -0.604280
O	      6.14653      8.24181      8.56297        -1.485943      0.436587     -0.063151
O	      6.21635      6.07768     10.58933        -0.201577     -0.956140      0.071673
