# total energy = -138.84579658 eV
 
CRYSTAL
PRIMVEC
0.022983 6.106779 6.197865 
6.160834 -0.012082 6.232812 
4.106026 4.093217 -0.006912 
PRIMCOORD
27 1
Mn	      4.06665      2.06198      2.06411         0.111234      0.116187     -0.096016
Mn	      4.13280      4.07172      8.24492         0.145127     -0.086919     -0.231929
Fe	      6.20061      2.12018      4.21448         0.685763     -0.092324      0.091563
Co	      4.12874      2.03778      6.19835        -0.357719     -0.183873      0.057690
Cu	      6.15346      6.12811      4.15838         0.136402     -0.626071     -0.412687
Ni	      0.05056      6.12188      6.20846         0.285674      0.056017      0.499865
Ni	      4.11842      8.16516      4.13206        -0.317075      0.009706     -0.067655
Ni	      4.04318      6.07443      6.15463        -0.484009     -0.281802     -0.409318
Ni	      6.19167      6.07847      8.26910        -0.035687     -0.158160      0.004342
O	      1.97485      4.00466      4.12581        -0.436674     -0.356247      0.100358
O	      2.19170      2.01100      2.18817         0.515056      0.416116      0.891513
O	      4.12141      3.92351      1.98850        -0.401678     -0.776633     -0.864910
O	      4.11462      2.04462      4.09734         0.003902      0.078338      0.258905
O	      6.16765      3.95001      4.18050         0.119790      0.448205     -0.042626
O	      6.08478      2.04179      6.15096        -1.199618     -0.755183     -0.593201
O	      8.36650      4.23852      6.23769         0.590787      1.511760     -0.125874
O	      4.19386      6.13432      4.17824         0.964056      0.788346      0.864168
O	      4.09199      4.01852      6.35469         0.013517     -0.702721      0.445460
O	      6.29678      6.08004      6.13809         0.831433     -0.016817     -0.333150
O	      6.01825      4.08489      8.32453        -0.466477      1.126803      0.528975
O	      8.21476      6.24531      8.10485        -0.871198      0.393199     -0.500557
O	      1.98671      6.11859      6.18829        -0.263404     -0.216077     -0.031349
O	      4.08055      8.12325      6.35302         0.054898      0.236995     -0.027800
O	      4.15524      6.08218      8.18754         0.990465     -0.026245     -0.749862
O	      6.16282      8.10410      8.38990        -0.024555     -0.906480      0.547172
O	      6.20065      6.21384     10.40030        -0.066197     -0.153794      0.324526
O	      8.21992      8.16015     10.17576        -0.523810      0.157674     -0.127603
