# total energy = -184.07983535 eV
 
CRYSTAL
PRIMVEC
0.031281 6.402977 6.212695 
6.484441 0.056393 6.188390 
4.372101 4.300478 -0.010857 
PRIMCOORD
27 1
Sc	      4.33481      4.28983      4.06923         0.217665     -0.056875      1.007058
Sc	      6.46047      8.55129      6.17582        -0.430965     -0.245408     -1.579962
Ti	      8.62314      2.38573      6.22967        -0.179867      0.741431     -1.936661
V	      2.21347      6.41540      8.27903        -0.768667      2.073461      2.254684
V	      6.56616      8.42489     10.35568        -0.562412     -3.057505      2.291255
V	      8.86229      8.47105      8.29356         3.604088     -2.632362      0.473487
Fe	      4.41901      6.42958      6.13809         0.951115     -0.150635     -1.023433
Cu	      4.26917      2.16231      2.09837        -0.004445     -0.264195      0.278039
Cu	      8.51815      4.50593      8.30537        -0.930397      0.580322     -0.101211
O	      2.08920      2.03049      1.93991         0.896926     -1.620162      0.141511
O	      4.63279      4.21172      2.01596         1.338170     -0.941931     -0.022121
O	      4.52367      2.17393      4.09991         1.634597      0.549420     -1.538692
O	      6.49627      4.16316      4.04648        -0.274802     -0.399683     -3.356144
O	      6.68895      2.21954      6.08852         0.956002      0.004381     -2.101211
O	      8.70781      4.22549      6.22114        -0.369455     -0.839181      1.751070
O	      2.23597      4.28009      4.16156         0.814832      0.254156     -1.233158
O	      4.39652      6.35627      4.19056         0.074029     -0.176116      1.812521
O	      4.29217      4.34126      6.24205        -1.003853      0.949573      1.059230
O	      6.40209      6.51079      6.21628        -2.096479      0.251147     -0.204301
O	      6.29265      4.41069      8.31097        -2.278081     -0.441161     -0.029661
O	      8.70215      6.67260      8.22193         0.375279      1.906692      0.199754
O	      2.28933      6.45597      6.24013         1.045808     -0.232201      2.048004
O	      4.30576      8.50170      6.22631        -0.291845     -0.693544      1.531625
O	      4.21753      6.35053      8.22482        -1.320617     -0.016254     -0.934257
O	      6.76325      8.64796      8.31286        -0.001701      1.356051      0.098761
O	      6.52934      6.67939     10.32095         0.202783      2.936071      0.015385
O	      8.62238      8.58773     10.36077        -1.597710      0.164509     -0.901573
