# total energy = -159.10640658 eV
 
CRYSTAL
PRIMVEC
0.036302 6.238780 6.325325 
6.377325 -0.015592 6.377913 
4.237678 4.180456 0.003343 
PRIMCOORD
27 1
Sc	      4.15477      2.08386      2.10998        -0.413181      0.029613     -0.350028
Sc	      4.35185      6.21145      2.17925         0.367716      0.206083     -0.996516
Sc	      8.46918      6.16845      6.33355        -0.172453     -0.104316      1.150790
Mn	      4.25053      4.20294      8.47368         0.572950     -0.535781     -0.144206
Fe	      2.08196      4.21813      6.26314        -1.019296     -0.663201      0.025207
Cu	      8.57081     10.36878     10.58802         0.007981     -0.688755     -0.161763
Cu	      6.36171      4.16337      6.35398         0.066931      0.027970      0.576221
Ni	      6.44971      8.26432     10.61071         0.765010     -0.441370     -0.029198
Ni	      4.26464      4.25131      4.24733        -0.198117      0.624216     -0.190409
O	      6.35480      4.10053      4.45925        -0.106574     -0.551498      0.657407
O	      6.30566      6.26482     10.57209        -0.326702      0.474070     -0.014555
O	      2.15379      2.08503      2.08003        -0.041673     -0.048903      0.260867
O	      4.21590      4.14754      2.20061         0.068972     -0.234599      0.879912
O	      4.32732      2.04008      4.23342         0.715235     -0.184009      0.043610
O	      6.34477      2.06903      6.36797        -0.500646      1.065694     -0.265093
O	      8.44022      4.14465      6.28095        -0.997586     -0.181431     -1.269837
O	      2.22727      4.16624      4.40162         0.743092      0.196391      1.197548
O	      4.27784      6.25842      4.17611         0.007288     -0.884426      0.805995
O	      4.19976      4.19622      6.46215         0.151270     -0.340145     -0.242698
O	      6.41659      6.43648      6.34559        -0.083528      0.487545     -0.117367
O	      6.21175      4.18316      8.29855        -0.781302     -0.363934     -1.117782
O	      8.54614      6.42942      8.43883         0.488089      1.247123     -0.434895
O	      2.13532      6.02553      6.31845        -0.436003     -0.824454     -0.225051
O	      4.40562      8.30199      6.39182         1.859029      0.447256     -0.454082
O	      4.24364      6.13983      8.58954        -0.000539      0.152622      1.330405
O	      6.52237      8.34405      8.38657        -0.079978      0.136915     -0.388048
O	      8.49709      8.39047     10.39330        -0.655986      0.951325     -0.526433
