# total energy = -175.23236000 eV
 
CRYSTAL
PRIMVEC
0.002144 6.197158 6.390042 
6.535551 0.047156 6.343565 
4.383714 4.128064 0.005392 
PRIMCOORD
27 1
Sc	      8.54222      4.26579      4.16696         0.332392     -1.068240     -0.252427
Sc	      2.23428      6.14742      4.21670         0.238380      0.167941     -1.250570
Mn	      2.16833      2.07160      0.06935         0.411380      0.619504      0.119688
V	      4.43868      8.22420      4.32755         0.840053     -0.574837     -1.389682
V	      4.41251      6.03145      6.47195         0.565025     -3.738248      0.845541
V	      6.59100      6.23005      8.45480         1.768072      0.914223     -1.195788
Co	      6.53891      8.25691      6.45670         0.643847     -0.469111      0.545608
Cu	     10.79861      4.28214      6.44508        -0.915547     -0.225796      0.563873
Cu	      6.58466      2.15989      8.42168         0.321179      0.118687     -0.523802
O	      2.11082      2.09745      1.93527        -1.147015     -0.138894     -0.226703
O	      4.33052      4.29452      2.02096         0.059866      1.027864     -0.816635
O	      4.34736      2.08986      4.26191        -0.089898      1.068028      0.083667
O	      6.59439      4.17483      4.16179        -0.968005      0.290278     -0.149049
O	      6.81890      2.04435      6.21977         0.276502     -0.392348      1.374354
O	      8.68889      3.99366      6.28550         0.888879     -0.566581     -0.569301
O	      2.02276      4.13057      4.45857        -2.302417      0.242528      1.141205
O	      4.32800      6.23794      4.44392        -0.277318      1.140151      0.450870
O	      4.38416      4.27514      6.39246        -0.838303      3.308292      0.099636
O	      6.41714      6.23181      6.49300        -1.475657      0.687672      1.399667
O	      6.57036      4.23314      8.57587        -0.051771      0.268575      2.202050
O	      8.64727      6.23187      8.50523        -1.721288     -0.152941      0.899199
O	      2.37912      6.22799      6.41950         0.852881     -0.355639     -0.357230
O	      4.22582      8.17423      6.43288         0.223478      0.278525     -1.194374
O	      4.56351      6.16038      8.43802         1.243091      0.153663     -1.044269
O	      6.58592      8.06473      8.45372        -0.037283     -1.910771     -0.949311
O	      6.59686      6.17146     10.57453        -0.233881     -0.808261     -0.651766
O	      8.92151      8.28178     10.74885         1.393357      0.115737      0.845547
