# total energy = -180.73733339 eV
 
CRYSTAL
PRIMVEC
0.038229 6.402845 6.297797 
6.342249 0.043556 6.291973 
4.250757 4.287524 0.007298 
PRIMCOORD
27 1
Sc	      8.53981      6.44461      6.42321         0.594276      0.161011     -0.380328
Sc	      6.37009      4.29151      6.44706        -0.513329     -0.365900     -0.898810
Ti	      4.17335      6.51563      6.30812        -1.303549     -0.394010     -0.662991
V	      2.08809      2.12040      0.06550        -0.753575     -2.906553      0.356257
V	      4.30652      6.34204     10.42207         2.047898     -3.041432     -0.612500
V	      4.16299      4.29492      4.06347        -2.477249      2.360064     -1.948822
Co	      4.34916      8.55436      8.38645         1.278266      0.745179     -0.724714
Ni	      2.10648      2.18691      4.09209        -0.878103      0.324692     -0.047025
Ni	      6.41030      6.47558      8.42299         0.831336     -0.276441      0.830538
O	      2.23126      2.21916      2.00295         1.377988      0.037219     -2.174047
O	      4.33967      4.31346      2.29509        -0.200811     -1.249032      2.256560
O	      4.18083      2.20901      4.22688        -0.424775     -0.077250     -0.700609
O	      6.50249      4.38462      4.19551         0.193182      0.899007      0.396409
O	      6.36117      2.18995      6.35350         2.711956      0.743004      0.011839
O	      8.47027      4.30036      6.16813        -0.527220     -0.892234     -0.829583
O	      2.30107      4.24565      4.21230         2.713979     -0.637546     -0.510516
O	      4.29051      6.28735      4.32486         0.950983     -2.043863      0.472882
O	      4.31242      4.30616      6.12474         0.717667     -0.486041     -0.226078
O	      6.30442      6.39737      6.28313         0.328930     -0.490894      0.081716
O	      6.39592      4.37231      8.40259         0.176579      1.098054      1.001443
O	      8.46122      6.47989      8.38106        -1.129822     -0.000012      0.726947
O	      2.27040      6.48404      6.27137         1.129406      3.525679      0.112650
O	      4.22766      8.40608      6.22453        -2.184519     -0.337117      1.425079
O	      4.25920      6.35744      8.32144         0.766597      1.217392      1.138472
O	      6.32201      8.50713      8.37019        -2.381512     -0.580300      0.004889
O	      6.10396      6.48482     10.47907        -3.057547      0.109213     -0.750330
O	      8.46080      8.74669     10.60046         0.012968      2.558113      1.650670
