# total energy = -186.40114032 eV
 
CRYSTAL
PRIMVEC
0.006989 6.518076 6.445599 
6.077724 0.023482 6.429044 
4.074413 4.356682 -0.006902 
PRIMCOORD
27 1
Sc	      4.16254      6.56348      6.32443         1.742912     -0.247475     -0.401974
Ti	      8.15321      6.53946      6.49712        -0.234671     -0.397447      0.713836
Mn	      8.01356      2.18883      6.41949        -0.427479      0.155975     -0.017139
Mn	      1.97867      6.52602      8.51222        -0.634210     -0.623548      1.030961
Mn	      4.12273      8.68571      8.60406        -0.003931      0.373912     -0.681877
Mn	      4.05758      4.38201      4.25376         0.253242      0.852015      0.378854
Mn	      4.12443      4.37179      8.63826        -0.921840     -0.811305      0.033769
V	      4.12100      0.04046      4.36225         2.399845      0.359194      2.373495
Co	      1.96442      6.44812      4.30164        -0.682948     -1.166754     -0.603421
O	      1.98486      1.95543      1.96026         1.642033     -0.550655     -0.701659
O	      4.00583      4.25855      2.32782         1.884227     -0.690312      0.646013
O	      4.05833      2.05032      4.38744         0.074582     -0.485737     -0.636147
O	      6.19554      4.40406      4.15044        -0.234942     -0.009695     -1.892292
O	      6.03912      2.19157      6.43258         0.294104      0.227844      0.141051
O	      8.10662      4.54664      6.32228        -0.148300     -0.594718     -2.475308
O	      2.11477      4.41524      4.26474         1.117416      1.397236      0.116438
O	      4.05558      6.54526      4.32941        -1.238196     -2.126903      0.074789
O	      4.12386      4.28483      6.25543        -0.298741     -0.027483     -0.534038
O	      6.21138      6.59609      6.44262         0.918218     -0.064208      0.239521
O	      6.00641      4.35274      8.60208        -0.080550     -0.149846     -0.144353
O	      8.09963      6.71374      8.45706         0.395252      1.292888     -0.281507
O	      2.02883      6.46539      6.44332         0.172575      1.961916      0.777543
O	      3.92498      8.62701      6.46878        -1.180435     -0.483597      1.671218
O	      4.14039      6.43760      8.63678        -1.674188      0.170838      0.306033
O	      6.21243      8.93857      8.56416        -1.040910      1.058205     -0.205118
O	      5.93610      6.54164     10.72024        -2.104437     -0.112703     -0.219491
O	      8.07383      8.85200     10.87640         0.011373      0.692363      0.290806
