# total energy = -172.83352730 eV
 
CRYSTAL
PRIMVEC
-0.015534 6.471061 6.160507 
6.293228 -0.026211 6.166121 
4.174698 4.299435 0.004638 
PRIMCOORD
27 1
Ti	      6.23231      6.52896      8.33040         0.485376      0.977270      2.668895
V	      4.20523      2.15594      5.99628         0.767826      0.517870     -2.416676
V	      8.34574      8.58405      8.30107        -2.401252     -0.086465      3.089204
Cr	      2.12999      4.24139      2.15319         1.040475     -1.392689      2.774670
Cr	      6.28750      4.30030      6.11953        -0.445258     -0.436895     -2.127409
Co	      4.15364      2.20162      2.02685         0.170414      0.855519     -0.514299
Co	      8.33634      4.25358      4.12397         0.742684     -0.507719      0.301737
Co	      4.02377      6.57102      6.03855        -1.553904      0.571415     -1.977575
Cu	      4.25094      6.35732      2.16882         0.865014     -1.145897      0.859175
O	      2.03517      2.29600      2.05403         0.198608      1.757354     -0.112379
O	      4.08373      4.20439      2.02898        -1.734014      0.219012      0.056236
O	      4.22853      2.10293      4.20960        -0.217737     -0.496388      1.395408
O	      6.38260      4.22633      4.17013         0.787877      0.280366      1.798115
O	      6.14884      2.26415      6.27319        -1.927793      0.788958      0.854253
O	      8.30021      4.47501      6.24341        -0.434572      1.176605      0.264636
O	      2.07880      4.31695      4.03735        -0.068577      0.258775     -2.539375
O	      4.19092      6.41453      4.15306         0.137212     -0.171863     -0.055009
O	      4.26593      4.17626      6.27425         0.630798     -0.683125      0.248646
O	      6.36423      6.34384      6.21916         0.887522     -0.764180      0.217923
O	      6.23676      4.48265      8.17759        -0.072907     -0.765390     -0.901236
O	      8.27327      6.51882      8.14183         0.418022      0.340951     -0.435796
O	      2.20561      6.46673      6.17393         1.367690      0.129367     -0.126165
O	      4.13709      8.42484      6.19903        -0.178441     -0.808301      1.196890
O	      4.26922      6.33424      8.05861         0.319065     -0.709531      0.345124
O	      6.36947      8.45233      8.19535         1.590613     -0.451091     -0.279504
O	      6.21054      6.48168     10.17661        -1.492588     -0.136554     -2.000817
O	      8.38538      8.63082     10.06351         0.117849      0.682626     -2.584670
