# total energy = -99.76343099 eV
 
CRYSTAL
PRIMVEC
-0.000035 2.079215 2.079246 
8.566139 -2.097091 2.097123 
0.000315 4.193816 -4.193886 
PRIMCOORD
16 1
Li	      0.26382      2.07845      2.07915         0.008076     -0.002512      0.001788
Li	      2.14355      2.05661      0.02135        -0.002154     -0.003317      0.002083
Li	      2.14311      4.21452     -2.13645        -0.001636      0.001871     -0.002708
Li	      4.02200     -0.00038      0.00087        -0.013335     -0.002290      0.000617
Ti	      6.42550     -0.01103      2.08716         0.002697     -0.000067      0.000453
Ti	      6.42494      2.08579     -0.00980         0.025006     -0.001321      0.001825
Ni	      4.09676      4.17435     -0.01824        -0.037164      0.002641     -0.003460
Ni	      0.18899      4.17458     -0.01851         0.026439      0.004912     -0.004055
O	      4.52282      2.13699     -0.05996         0.216086     -0.100979      0.100930
O	      4.52249     -0.06086      2.13791         0.225400      0.097156     -0.099519
O	      6.38552      2.07718      2.07849        -0.021066      0.002596     -0.000152
O	      6.46516      4.17396     -0.01836         0.018013      0.003059      0.000193
O	      8.32815      0.04008      2.03692        -0.225541     -0.101727      0.099905
O	      2.14236      4.17512     -0.01835         0.011151     -0.000875      0.001985
O	      8.32874      2.03601      0.04102        -0.236675      0.099168     -0.098673
O	      2.14252      2.07839      2.07908         0.004704      0.001683     -0.001214
