# total energy = -171.80506278 eV
 
CRYSTAL
PRIMVEC
0.014935 6.173817 6.285908 
6.305639 0.019921 6.280472 
4.201051 4.109308 0.016613 
PRIMCOORD
27 1
V	      8.42085      4.11330      4.24046         1.091129     -0.805453     -0.235859
V	      6.28400      8.17089      6.37666        -0.290054     -0.272150      2.036838
V	      4.26095      4.11707      4.20515         0.359491     -0.058301      0.341777
Cr	      6.33595      2.09451      8.32230        -0.018747      0.051420     -0.499627
Cr	      4.24020      8.20151      4.21942        -0.205408      0.026528      0.044935
Fe	      4.05039      2.03598      2.02781        -0.575347     -0.371546     -1.047793
Co	      6.35016      8.21823     10.47864         0.196678     -0.280900      0.276730
Co	      8.40413      6.19643     10.42669        -0.224635      0.204673      0.199739
Cu	      6.33895      4.22472      6.39191         0.425857      0.768641      0.228464
O	      2.12192      2.07589      2.02030        -1.664309      0.042541      0.058445
O	      4.17641      4.12225      2.28042         0.072151      0.558956      1.776770
O	      4.21990      2.10943      4.09444         0.539373      0.379345     -0.383569
O	      6.24374      4.10172      4.19485        -0.311578     -0.331637      1.220414
O	      6.33075      2.22649      6.32005        -0.056615      0.952592     -0.402288
O	      8.41521      4.22145      6.04263        -1.338344      0.172881     -1.579220
O	      2.12749      4.08874      4.28858         0.306357      0.811000      0.741117
O	      4.25983      6.14032      4.12042        -1.079725     -0.908367     -0.927792
O	      4.11672      4.12775      6.08222        -0.523624     -0.068151     -1.820343
O	      6.30172      6.26645      6.33590         0.037746      0.830622      0.119540
O	      6.33744      4.08228      8.47727         0.275497     -1.779869     -0.043553
O	      8.52913      6.19579      8.43268         1.902985     -0.092706      1.704197
O	      2.09956      5.94331      6.23507         0.085063     -1.221429     -1.750831
O	      4.27049      8.18796      6.29359         2.199940     -0.083722     -0.636658
O	      4.15279      6.23930      8.59905        -0.151910      1.004182      1.966470
O	      6.19215      8.22429      8.32480        -0.390009     -0.193551     -1.319593
O	      6.22268      6.12823     10.48628        -0.566041      0.111391      0.029852
O	      8.50350      8.30182     10.51231        -0.095918      0.553008     -0.098164
