# total energy = -167.73222979 eV
 
CRYSTAL
PRIMVEC
-0.009201 6.470900 6.228876 
6.124524 0.006417 6.215688 
4.085761 4.308348 -0.000610 
PRIMCOORD
27 1
Sc	      2.08361      4.24963      2.18372        -0.903430      0.081427     -0.115992
Mn	      8.16043      6.49922     10.33261         0.241684      0.100891     -0.027314
V	      4.21979      6.27497      6.25412         1.656241     -1.240132      1.547197
Cr	      8.16933      2.20892      6.25070        -0.723184     -0.327280      2.076420
Cr	      6.10325      8.73467     10.21780        -1.466221      0.741341     -1.693177
Cr	      8.18370      6.42085      6.24925        -0.270864      0.714539     -0.174471
Cu	      4.08504      6.51742     10.31666        -0.470198      0.899503     -0.384686
Cu	      6.11288      4.29489     10.33256        -0.066328     -0.481451     -0.378967
Cu	      6.06008      8.65392      6.31945         0.443382     -0.110021      0.885084
O	      4.03323      6.48232      7.97762        -0.034511      0.102627      0.071193
O	      6.07996      8.62422      8.34996        -0.160148      0.216674      0.959974
O	      2.03766      2.17809      1.98624         0.052478      0.035703     -1.882138
O	      4.06937      4.30262      2.09065         1.336592      0.162694     -0.127351
O	      4.13151      2.05498      4.23989         1.289968     -0.542952      0.669869
O	      6.18531      4.13821      4.10549         0.713354     -1.187754     -0.038284
O	      6.09117      2.23324      6.04724         0.439155      0.082419     -1.261493
O	      8.16421      4.37657      6.30939         0.322577     -0.271025     -0.531414
O	      1.95972      4.32911      4.31057        -1.126090      1.369176     -0.031847
O	      3.96076      6.33042      4.32070        -1.092147      0.824689     -0.316395
O	      3.98061      4.36868      6.25050        -1.169948      0.177285     -0.137399
O	      6.02368      6.32470      6.15255        -0.343857      0.565687      0.111817
O	      6.11164      4.35437      8.42298         0.123445     -0.096434      1.653104
O	      8.17189      6.45717      8.30626         0.141893     -1.175751      0.379046
O	      2.12527      6.68901      6.08041         0.426837      0.178112     -0.813680
O	      4.07054      8.43264      6.11753        -0.054172     -0.267503     -1.198303
O	      6.19796      6.77892     10.38015         0.228827      0.069831      0.008513
O	      8.14464      8.81152     10.41423         0.464665     -0.622297      0.750692
