# total energy = -171.68837963 eV
 
CRYSTAL
PRIMVEC
0.017017 6.298299 6.463198 
6.306385 0.042183 6.437619 
4.214435 4.192021 0.018399 
PRIMCOORD
27 1
Sc	      4.27788      8.36492      8.51314        -1.253833      0.766330     -0.108731
Sc	      6.35445      2.17013      8.49518         0.807812      0.359143     -0.271313
Sc	      6.28634      4.32124     10.78144        -0.326028     -0.105100      0.367118
Mn	      4.21820      4.20492      4.36584         0.117650     -0.304195      0.124416
Fe	      6.34211      6.24947      4.39074         0.143508     -0.103411      0.039618
Fe	      8.38817      6.28220      6.52131         0.439131      0.078187     -0.644427
Fe	      8.34093      6.43659     10.87596         0.217561      0.575439     -0.441583
Co	      6.31859      6.31093      8.53354        -1.119993      0.598373      0.062675
Cu	      6.28340      0.06022      6.42916        -0.159307      0.292167     -0.240498
O	      8.52943      4.32803      6.40186         1.603462      1.294020      0.236044
O	      2.10802      2.09693      2.32388        -0.026522     -0.104482      1.209282
O	      4.23589      4.21334      2.41416         0.131677      0.015506      0.425246
O	      4.13448      2.25951      4.32909        -0.645164      0.706902      0.285384
O	      6.15818      4.29359      4.34885        -1.207239      0.495471      0.142152
O	      6.24985      2.07682      6.47809        -1.674404     -1.759602     -0.069255
O	      2.19072      4.19795      4.33805         0.346070      0.261048      0.219247
O	      4.20353      6.23576      4.32866        -0.159544     -0.020326     -0.534271
O	      4.21842      4.12577      6.27148         0.016975     -1.338733     -0.666199
O	      6.37905      6.28405      6.45138         1.522003     -0.016151      0.413279
O	      6.34376      4.25888      8.64326         0.000012      1.122420      0.597446
O	      8.39423      6.33711      8.57346        -1.072707     -0.111998     -0.078944
O	      1.97890      6.30846      6.36123        -1.697583      0.133427     -0.541341
O	      4.18520      8.49015      6.46135         0.215293      1.705159      0.135496
O	      4.34951      6.32748      8.59224         2.641073     -0.468623     -0.122525
O	      6.31598      8.26507      8.58448         0.331861     -2.518270     -0.329834
O	      6.40045      6.33095     10.52453         0.673222     -0.266822     -0.446595
O	      8.47813      8.36411     10.76997         0.135014     -1.285877      0.238114
