# total energy = -149.51908297 eV
 
CRYSTAL
PRIMVEC
0.000743 5.991978 6.650678 
6.093594 0.024529 6.625046 
4.092022 4.008196 -0.013329 
PRIMCOORD
27 1
V	     10.07660      7.89946     10.98276        -0.510450     -1.597735     -0.062741
V	      2.03490      4.19922      6.56692        -0.112684      3.417707     -1.157753
Cr	      8.16191      6.00235      6.71943         0.545612     -0.635320      0.343902
Co	      2.13239      1.83263      4.30193        -0.758568     -0.208911     -0.478129
Cu	      4.09430      8.02844      8.83343        -0.359584      0.181225     -0.197671
Cu	      6.04898      2.02507      4.47152         0.450739     -0.037064      0.092422
Cu	      6.05973      4.02325      6.63405        -0.291797      0.076334      0.127443
Cu	      6.12769      6.05097      8.88093        -0.197823     -0.434958      0.191710
Ni	      2.04417      2.00264      0.05326         0.581859     -0.764477      0.131412
O	      4.16188      6.15430      8.85239         1.065986      1.178314      0.099000
O	      5.97039      8.00656      8.55336        -0.358324     -0.864019     -0.174686
O	      2.23666      1.99174      2.29720         0.820689     -0.024558      0.339880
O	      4.08701      3.87369      2.19890        -0.124950     -1.016912     -0.028694
O	      4.06472      2.00918      4.70366         0.067230      0.009281      1.125965
O	      6.10012      4.02978      4.34723         0.052572      0.445950      0.557101
O	      6.08525      2.05732      6.75805        -0.545911      1.141232     -1.116788
O	      8.01750      4.01041      6.69591        -1.077816      1.289753      0.310598
O	      1.94038      3.87577      4.62151        -0.020561     -0.723516      1.396790
O	      4.12266      6.10619      4.29309         0.853923      1.266831     -0.103381
O	      4.02879      4.01194      6.70574        -0.528943     -1.736918      0.006337
O	      6.14507      6.05335      6.67569         0.939235     -0.694665     -0.018070
O	      6.11759      4.10443      9.20407         0.162388      1.248797     -0.450594
O	      8.07796      6.05331      8.71642        -1.043700     -0.182659     -1.565638
O	      2.09054      5.94283      6.64175        -0.140764     -2.401740     -0.053773
O	      4.15195      8.06603      6.30671         0.945353      0.215613      0.277076
O	      6.15787      6.04298     10.89545        -0.043508      0.651926     -0.316299
O	      8.28510      8.00628     11.17880        -0.370204      0.200490      0.724584
