# total energy = -166.89203405 eV
 
CRYSTAL
PRIMVEC
0.034113 6.383784 6.252791 
6.231751 0.050247 6.237505 
4.173860 4.265034 0.013605 
PRIMCOORD
27 1
Mn	      0.11183      6.36040      6.28718         1.341789     -0.529949      0.187874
Mn	      8.32301      6.45214      6.35290        -0.754855      1.659457      1.108037
V	      4.17683      6.38778     10.24039        -0.245240     -2.121205     -2.937104
V	      6.15959      6.43833      4.16900        -3.836495      0.763637      0.223766
Fe	      6.14293      4.28557      6.37296        -1.084306      0.562236      0.886749
Fe	     10.40073      8.57971     10.40825        -0.033438     -1.122457     -0.502122
Co	      6.29557      8.57686     10.38814         0.699299     -0.116596     -1.170571
Co	      2.14941      4.25116      2.07998        -0.705945      0.655206      0.764454
Cu	      4.27522      8.57869      8.26291         0.280007     -0.443648     -0.435364
O	      2.23076      2.28984      2.20438         1.260707      0.550295      0.986948
O	      4.10053      4.23445      2.05993        -0.685726     -1.230947     -1.536313
O	      4.06973      2.06391      4.37558         0.504415     -1.079581     -0.129375
O	      6.35026      4.38997      4.26155         1.542112      0.240545      0.400549
O	      6.24343      2.26667      6.13871        -1.491270     -0.899648     -0.573452
O	      8.43410      4.29870      6.27793        -0.077173      1.453073      0.271758
O	      2.07833      4.16559      4.00691        -0.669701     -1.526910     -0.578659
O	      4.35281      6.42279      4.12889         3.325044      0.706315      0.180777
O	      4.22990      4.27518      6.30956         0.823687     -2.383056      0.169312
O	      6.27838      6.31920      6.17216         1.704778     -0.314830     -1.433543
O	      6.42590      4.27967      8.32373         1.719616      0.107105      0.099901
O	      8.36228      6.27373      8.24398         0.114400     -1.529310     -1.118898
O	      1.97193      6.39403      6.23867        -1.237375     -0.167356      0.230397
O	      4.21415      8.48229      6.06797         0.166454      2.156542      0.310057
O	      4.15397      6.51937      8.48599         0.203444      1.097888      2.437493
O	      6.19791      8.55013      8.45391        -1.348630      0.241069      0.769919
O	      6.14800      6.39638     10.44706        -1.187445      0.507201      1.295668
O	      8.38455      8.70899     10.32412        -0.328154      2.764923      0.091742
