# total energy = -183.24227311 eV
 
CRYSTAL
PRIMVEC
0.004020 6.319002 6.361731 
6.315160 0.014518 6.351344 
4.232735 4.228620 -0.013061 
PRIMCOORD
27 1
Sc	      6.37802      4.17774      2.20250        -0.597521      1.057678     -1.150055
Sc	      2.04969      4.14016      2.17984        -0.075693     -0.886796     -0.963698
Sc	      2.08704      6.35623      4.33475        -0.113879      0.119517      0.202392
Ti	      4.06964      2.20563      6.16801         0.164051      0.370700     -0.732775
Mn	      4.21958      6.32735      2.12576         0.459696     -0.239077     -0.513096
Cr	      4.22283     10.49313      6.33847        -0.342518      0.379711     -1.159724
Cr	      4.22375      4.22543      8.46458         0.282370      0.564663      0.262142
Ni	      8.46798     10.51554     10.60798         0.131647      0.309623     -0.001754
Ni	      4.33927      6.41926      6.32360         0.758520      0.070897     -0.076117
O	      1.89055      2.10444      2.09367        -0.674932     -0.393578      0.220497
O	      4.20895      4.33019      2.04540        -0.102728      0.683462     -1.210425
O	      4.22666      2.11473      4.34524        -0.344047     -0.968799      0.715119
O	      6.41300      4.23038      4.18486         1.436036     -0.014389      0.879323
O	      6.18386      2.01116      6.54563        -0.455868     -1.481185      0.607538
O	      8.50947      4.34230      6.36611         1.298441      0.524416     -0.249798
O	      2.11747      4.30200      4.13787         0.086366      0.613211      0.495057
O	      4.20417      6.32256      4.11429        -0.728084      0.001671      0.083897
O	      4.24624      4.13019      6.41313        -0.268428      0.170469      1.988370
O	      6.43691      6.32746      6.36321        -0.071202      0.157538     -0.413654
O	      6.27197      4.02027      8.43001        -1.333449     -0.433145      0.273184
O	      8.53695      6.37148      8.45330         0.373481      0.436934      0.081134
O	      2.07603      6.35887      6.36896        -0.513473     -0.363083      0.326567
O	      4.21016      8.48613      6.41788         0.168352      0.760269      0.069204
O	      4.25040      6.24466      8.41413        -0.771457     -1.857626      0.154926
O	      6.45309      8.46532      8.46567         2.241147     -0.156373     -0.022389
O	      6.30718      6.35386     10.71396        -0.819465     -0.066712      2.468328
O	      8.46145      8.45893     10.46002        -0.187363      0.640005     -2.334194
