# total energy = -192.13228892 eV
 
CRYSTAL
PRIMVEC
-0.001657 6.302162 6.350064 
6.390608 -0.015057 6.363793 
4.269916 4.220148 -0.019520 
PRIMCOORD
27 1
Sc	      4.22605      4.18124      0.03608         0.440154     -0.253326      0.461909
Sc	      2.22490      0.17927      2.13295        -1.080301      0.577988     -0.207477
Sc	      6.35542      8.43228     10.51176        -0.252289      0.607662     -0.276159
Ti	      6.50009      8.30028      6.38666        -0.225800     -0.334335      1.550757
Mn	      2.13848      4.13593      2.14468         0.401349     -1.439181     -0.276226
Mn	      4.29471      8.35946      4.18653        -0.103827     -0.254076      0.681588
Mn	      8.61711      6.33703     10.52194         1.061413      0.174093      0.244462
Cr	      8.50281      6.27866      6.34818         0.047296      1.481547     -0.395589
Co	      8.49467      4.19807      4.20424        -1.123977      0.349764     -1.467442
O	      2.16287      2.19772      2.04525        -0.133032      1.546341      0.198107
O	      4.18060      4.18697      2.08152        -0.587667      0.070814     -0.215419
O	      4.27659      1.95237      4.32414         0.133520     -1.100942      1.402936
O	      6.49867      4.19294      4.19319         1.723664     -0.574203     -0.728406
O	      6.26282      2.03809      6.25617        -2.294551     -0.705019     -0.279409
O	      8.50672      4.24140      6.20903         0.242542      1.535227     -0.145967
O	      2.21546      4.23891      4.41382        -1.714286      1.097465     -0.970024
O	      4.28823      6.44371      4.23340        -1.210818      1.227418     -0.415358
O	      4.15212      4.10127      6.40896        -0.878198     -2.131605     -0.049094
O	      6.46271      6.40988      6.38833         2.075598      0.475052     -0.086701
O	      6.56457      4.15505      8.63269         0.989137     -0.148658      1.038925
O	      8.52069      6.08990      8.37726        -0.201643     -1.054167      0.410554
O	      2.06230      6.23447      6.39585        -0.571349     -0.816821     -0.989425
O	      4.40477      8.41106      6.18085         0.642289      0.339856     -1.398154
O	      4.23321      6.32355      8.62298         0.460055     -0.102168      2.370288
O	      6.35462      8.50373      8.36456         0.248821      0.765855     -0.731103
O	      6.26167      6.22300     10.59119         0.557725     -0.505241      0.347088
O	      8.45903      8.47953     10.56563         1.354173     -0.829340     -0.074662
