# total energy = -181.53173567 eV
 
CRYSTAL
PRIMVEC
0.025585 6.407228 6.514479 
6.156998 0.053658 6.488050 
4.147127 4.296867 -0.007398 
PRIMCOORD
27 1
Sc	      6.06069      2.34637      8.63429         0.037999     -0.118732      1.523306
Sc	      2.11487      2.17558      4.34512        -0.984560      0.100900     -0.443466
Sc	      4.08346      4.32866      4.37480        -0.713043      1.684336     -0.625017
Ti	      4.09573     10.52615      6.47886         0.503950     -1.158297     -0.427609
Mn	      2.16013      6.39041      8.60317        -0.407841      0.527264     -0.600204
Mn	      6.16878      6.42420      8.67677         0.110781      0.225604      0.606216
Cr	      6.28049      8.57673     10.81239         2.839667     -0.419203     -0.894926
Cu	      4.11395      2.20357      6.51755        -0.275278      0.072461      0.100492
Cu	      6.25598      4.35557      6.55814         0.335745      0.007208      0.475382
O	      8.11575      8.59317     10.89738        -2.612392     -0.016707      0.026884
O	      2.02537      1.98666      2.21125        -0.285245     -1.831516      0.106382
O	      4.18484      4.36891      2.04625         1.487027      0.499997     -0.165737
O	      4.21904      2.21943      4.25587         0.833727      0.253556      1.285533
O	      6.23641      4.23565      4.06713        -0.465127     -0.492103      0.219498
O	      6.13194      2.20177      6.41849        -1.041087      0.555821     -0.290400
O	      8.28993      4.39937      6.51381        -0.499777      1.220160     -0.001001
O	      2.11359      4.17811      4.34627        -0.192813     -0.344326     -0.013870
O	      4.17490      6.39113      4.24884         0.985804     -0.859526     -1.279932
O	      4.29971      4.26591      6.41344         0.868455     -1.266446      0.325434
O	      6.27104      6.39966      6.46103         1.322030     -0.976142      0.447950
O	      6.17485      4.38127      8.75599        -0.053077      1.247227     -1.381138
O	      8.16256      6.49411      8.71989        -0.937553     -0.044271     -1.421206
O	      1.97785      6.37759      6.69612        -1.031459     -0.251153      0.629807
O	      4.12495      8.70948      6.47842         0.335532      0.500335      0.029548
O	      4.17844      6.44071      8.61412         0.094691     -0.210922      0.028372
O	      6.21749      8.57037      8.81302         0.006466     -0.119258      1.641536
O	      6.20490      6.58444     11.01861        -0.262623      1.213735      0.098165
