# total energy = -151.29131366 eV
 
CRYSTAL
PRIMVEC
0.051573 6.089626 6.456174 
6.093842 0.047432 6.461702 
4.081422 4.082266 0.012529 
PRIMCOORD
27 1
V	      4.12006      2.01990      2.27501         0.838159     -0.360384      3.013817
V	      6.23394      4.08988      6.33826         1.399841      0.432777     -0.959546
Cr	      8.16429      8.13811      8.64428        -0.163100      0.627815      1.356777
Co	      8.14054      4.17804      8.68734        -0.365940      0.252037     -0.245804
Co	      4.06227      6.10755      6.48085         0.845813     -0.148570      0.375952
Cu	      8.18864      8.15064     12.86934        -0.761248      0.577737      0.418107
Ni	      8.13937      6.16075     10.78660        -0.772711      0.177554     -0.138047
Ni	      6.09179      8.13181      6.42162        -0.216327     -0.621121      0.112535
Ni	      4.08416      4.09183      4.31496         0.676043     -0.511809     -0.312977
O	      6.26058      6.11417     10.80391         0.919300      0.099295     -0.129153
O	      2.17856      2.19161      2.23443         1.068669      1.622126     -0.621230
O	      4.01004      4.03850      2.22821        -1.045709     -1.621195      0.619386
O	      4.11495      2.04903      4.15077         0.110902      0.736279     -2.730062
O	      6.09602      4.11652      4.55807        -1.022853     -0.195141      0.755829
O	      6.14448      2.23706      6.45472         1.325622      0.408010      0.053196
O	      8.04643      4.13137      6.48381        -0.792376     -1.386397      0.603590
O	      2.08372      4.15691      4.37456         0.857694      0.882112     -0.273072
O	      3.98307      6.09256      4.53725        -0.668904     -0.644844      0.993678
O	      4.12619      4.13725      6.52971        -0.286578      0.887078      0.231732
O	      6.02624      6.02197      6.43619        -1.863583      0.193253      0.074309
O	      6.10417      4.09712      8.39983        -0.085333     -0.120087     -0.482119
O	      8.17024      6.11851      8.62948        -0.090283     -1.085237      0.694905
O	      2.14306      6.12527      6.45904         1.116407      0.906433     -0.627723
O	      4.06160      8.03098      6.59678        -0.724574     -0.632884      0.461409
O	      4.05719      6.12987      8.48162         0.037474      0.536501     -1.378448
O	      6.05551      8.16872      8.50140        -0.368426     -0.128155     -0.657809
O	      8.17553      8.11144     10.57353         0.032023     -0.883184     -1.209231
