# total energy = -185.47379265 eV
 
CRYSTAL
PRIMVEC
-0.003546 6.172066 6.414210 
6.335681 0.002842 6.408096 
4.254017 4.141209 -0.028555 
PRIMCOORD
27 1
Sc	     10.57786      4.18381      6.42061        -0.019915      0.258531      0.752320
Sc	      6.23074      8.20308     10.59119         1.068809     -0.019428     -0.370936
Sc	      6.34969      4.17867      6.38502        -0.422508      0.594556      0.059517
Ti	      2.15962      4.01452      6.31042         0.232688     -0.432629     -0.841226
Cr	      2.12043      0.08765      2.15715        -0.034166      1.751305     -1.300825
Cr	      4.24293      8.18150      4.23691         0.660713     -2.479013      0.669025
Fe	      2.20937      4.12085      2.17814         0.736097      0.373035      0.847229
Fe	      8.48785      8.15361      8.52626         0.162559     -0.079252     -0.791070
Ni	      4.20690      6.19973     10.62686        -0.482106      0.769295      0.223033
O	      2.14671      2.12016      2.11674        -0.086495     -1.661998      0.303564
O	      4.23318      4.16478      2.09480         0.157582     -0.002165     -0.148603
O	      4.27816      2.03764      4.23563        -0.631442     -1.392377      0.137389
O	      6.37661      4.14744      4.23695         1.292453     -0.625180     -0.758234
O	      6.38189      2.10992      6.25346        -0.252372      0.086824     -0.935656
O	      8.44876      4.13685      6.51190        -0.216595      0.069475      0.000070
O	      2.06459      4.13149      4.35198        -1.395164     -0.036461     -0.259680
O	      4.23998      6.27048      4.27627         0.004955      2.579153     -0.149227
O	      4.16429      4.11307      6.49122        -0.069162     -0.221994      1.239778
O	      6.37070      6.29191      6.43152         0.168678      0.363260     -0.056549
O	      6.32565      4.12653      8.55526        -0.029704     -0.171112      0.801932
O	      8.44871      6.14645      8.55559         0.134789      0.159294     -0.052355
O	      2.06756      6.08571      6.57087        -0.450549     -0.682153      1.719064
O	      4.41259      8.26547      6.26525         0.812411      0.363446     -1.465467
O	      4.09848      6.08191      8.58753        -1.300804     -0.831142      0.928239
O	      6.41478      8.30763      8.44142         0.750415      1.181166      0.270753
O	      6.28418      6.13078     10.73463        -1.244745     -0.837976      0.154111
O	      8.53212      8.25411     10.55677         0.453576      0.923538     -0.976194
