# total energy = -161.22065701 eV
 
CRYSTAL
PRIMVEC
-0.046643 6.242608 6.159402 
6.303219 -0.041269 6.153872 
4.188571 4.144702 -0.014174 
PRIMCOORD
27 1
Ti	      6.11944      6.24897      4.02104        -2.064922      0.510992      0.193021
Cr	      8.38597      6.17241      6.13105         0.787992     -0.646815      0.972577
Cr	      4.13392      8.36442      4.17217         0.664526     -1.245316      2.089672
Cr	      4.16986      4.16779      8.14227         0.349670     -0.093359     -1.190824
Fe	      6.34859      2.05925      4.16668         0.917958      0.079627      0.662746
Co	      8.40620      4.11363      4.14180        -0.424202     -0.532340      0.869285
Cu	      4.06403      4.22871      4.11238        -0.728300      1.106104     -0.282249
Cu	      6.28061      6.20431      8.12517         0.123615     -0.316628     -0.011512
Ni	      4.15318      8.34728      8.11375        -0.446358      0.175193     -0.726637
O	      2.05508      6.24259      6.12849        -0.017915      0.050606      0.031348
O	      2.16728      2.05661      2.16953         1.066983     -0.181707     -0.173418
O	      4.17975      4.09537      2.22131         0.092053     -0.421385      0.851186
O	      4.25468      1.90937      4.10252         0.143943      0.310928      0.079152
O	      6.51323      4.10722      4.03710         0.344903      0.139326     -0.223124
O	      6.20809      2.05605      6.06874        -2.087293      0.094779     -0.513480
O	      8.37053      4.19045      6.00067         0.195635      1.083965     -1.413579
O	      1.95893      4.05197      4.07955        -0.330700     -1.242712     -0.250158
O	      4.24222      6.30155      4.07750         1.212907      0.208619      0.034281
O	      4.19852      4.03929      6.12166        -0.039683     -1.267210      0.415249
O	      6.41116      6.15162      5.92531         1.740163      0.051710      1.112751
O	      6.16435      4.20618      8.30891        -0.878810      1.383666      1.128237
O	      8.27430      6.30101      8.10822        -1.239410      0.631421     -1.156548
O	      4.13859      8.29361      6.09442        -0.024434      0.187892     -1.885709
O	      4.28705      6.19877      8.33143         0.974586      0.165224      0.469410
O	      6.31161      8.20882      8.29524         0.023869     -1.105752      0.491249
O	      6.07545      6.18728     10.36520        -0.588216      0.198329     -0.905670
O	      8.36846      8.40784     10.18696         0.231442      0.674840     -0.667257
