# total energy = -159.69457654 eV
 
CRYSTAL
PRIMVEC
0.013791 6.275369 6.229156 
6.211552 0.030934 6.211696 
4.162663 4.193628 -0.001022 
PRIMCOORD
27 1
Ti	      6.29495      6.36334      8.27756         0.642699      0.804002      0.373747
Cr	      6.23589      4.18486      6.25330         1.500532     -0.488399     -0.049251
Fe	      2.10236      2.06100      0.10964        -0.039487     -0.214553      0.680220
Fe	      6.16691      2.12226      4.15408        -0.591376     -0.653148     -0.055214
Fe	      2.15142      2.11716      3.99233         0.843843     -0.078255      0.060021
Fe	      4.18618      8.36736      4.15702         0.420228      0.668999      0.049042
Co	      4.16822      6.32434      6.22172        -0.645823      0.199044      0.191757
Ni	      4.11038      4.21893      4.09367        -0.619598      0.245418     -0.255851
Ni	      4.12027      4.22425      8.27072        -0.378282     -0.406770      0.023078
O	      4.15720      4.20256      2.15359        -0.031550      0.090169      0.204448
O	      2.08023      2.06498      2.07953        -0.096613     -0.051473     -0.857694
O	      4.14858      2.13860      4.19911         0.060035      0.928813     -0.081118
O	      6.20567      4.20005      4.24032        -0.945762      0.209141      0.941040
O	      6.24744      2.15482      6.14499         1.229520      1.037186     -0.849655
O	      8.21175      4.06013      6.23746        -1.718827     -0.875435      0.185239
O	      2.01738      4.10396      4.17085         0.095585     -1.373675     -0.375508
O	      4.24400      6.33512      4.24417         0.841060     -0.220625      0.936581
O	      4.20620      4.37819      6.19844         0.938162      0.914943      0.287917
O	      6.15162      6.21399      6.23613        -1.044273     -0.684237     -0.211525
O	      6.18241      4.29764      8.30629        -1.245694      0.445735     -0.473364
O	      8.17575      6.35578      8.20392        -0.515054      1.013598      0.086468
O	      2.23852      6.39215      6.22426         1.467600      1.216065      0.229398
O	      4.14222      8.30199      6.15276        -1.275585     -1.415016     -0.381766
O	      4.26493      6.26071      8.13936        -0.020997     -0.966292     -1.125751
O	      6.23605      8.30635      8.37560         0.950962     -0.396320      1.023847
O	      6.20110      6.28158     10.24513         0.159720     -0.132491     -1.053722
O	      8.29797      8.38694     10.38520         0.018976      0.183575      0.497616
