# total energy = -176.62874684 eV
 
CRYSTAL
PRIMVEC
0.010930 6.334013 6.258883 
6.303620 0.037764 6.232397 
4.203651 4.206035 0.024166 
PRIMCOORD
27 1
Sc	      4.16314     10.43007      6.30845        -1.031817     -0.962664      0.706910
Ti	      6.40548      4.34505      6.20412         0.653936      1.303184     -0.430378
Mn	      4.18488      6.35671      6.29335         0.642134     -0.016113      0.181341
Cr	      4.26603      6.28354      2.13754         0.739832     -0.117327      0.218300
Cr	      6.28071      4.25409     10.32730         0.344915      0.394454     -0.191649
Fe	      8.35914      6.33260     10.32173        -0.275848     -0.098275     -0.276306
Co	      4.20317      2.18832      6.26924        -1.442820      0.356684     -1.034472
Co	      6.29753      4.21302      2.14538         0.401905     -0.486058      0.508797
Co	      6.32228      8.48635     10.33491        -0.582980      0.620063     -0.579010
O	      2.03864      1.90931      2.11458        -1.522126     -0.491946     -0.060452
O	      4.30213      4.25768      2.12050         1.564859      1.384431     -0.483940
O	      4.30829      2.15441      4.39122         1.852561      0.165872      1.336016
O	      6.38909      4.26711      4.33360        -0.119247     -2.175416     -0.710134
O	      6.23909      2.17659      6.30609        -0.612648     -0.010768     -0.337568
O	      8.36168      4.20659      6.31685        -0.496344      1.126702      0.236071
O	      1.99107      4.32003      4.13448        -1.866929      0.908866     -0.203128
O	      4.13063      6.39557      4.19990        -0.831011      1.025066     -0.330233
O	      4.37952      4.39086      6.27505         0.723209      0.506142      0.400183
O	      6.39569      6.28732      6.31870        -0.391721     -1.408449     -0.131352
O	      6.35667      4.12766      8.29008         0.058128     -1.611518      1.055642
O	      8.50748      6.35255      8.29195         1.596615     -0.154984      0.259824
O	      2.03348      6.31305      6.15384         1.186444      0.035920     -0.169655
O	      4.16528      8.35769      6.15577         0.016883     -0.788174     -1.593878
O	      4.06731      6.38626      8.20523        -1.503655     -0.369229     -1.031005
O	      6.27297      8.64719      8.38094         0.094801      1.316318      2.316787
O	      6.32001      6.27718     10.36498         1.172358      0.808523      0.664607
O	      8.42502      8.35393     10.37106        -0.371434     -1.261304     -0.321315
