# total energy = -153.94016833 eV
 
CRYSTAL
PRIMVEC
-0.023342 6.216487 6.261361 
6.203503 0.001464 6.235973 
4.126432 4.118430 0.011087 
PRIMCOORD
27 1
Sc	      6.16621      6.20255      8.30033        -0.437858      0.418189      0.251807
V	      8.21810      4.12194      4.30551        -0.217872      0.377732      0.811419
Cr	      2.09935      4.18279      6.19858         0.113114     -0.116317     -0.089179
Co	      4.02358      2.15845      2.00969        -0.417526     -0.074540      0.506531
Co	      2.06801      6.22489      4.19971         1.031320     -0.398581      1.766078
Co	      8.23905      8.26996      8.34674        -0.716816      0.903726      0.334191
Cu	      4.16367      6.13968      2.09447         0.689913     -0.799371      0.262460
Ni	      2.06622      4.11172      2.15398         0.404411     -0.497307     -0.110247
Ni	      6.12353      4.09975      6.22400         0.014627      0.199528     -1.368310
O	      6.20577      2.09636      6.36371         0.110749      0.323401      1.144129
O	      2.07044      2.11565      2.11128         0.377666      0.721880      0.072800
O	      4.07759      4.10200      2.12095        -0.691246     -0.123091     -0.261232
O	      4.18079      1.84020      3.96501        -0.029904     -0.499305     -1.286825
O	      6.39985      4.09604      4.20478         1.065180     -0.193118      1.038574
O	      8.27974      4.11396      6.08817        -1.060059      0.034776     -0.138120
O	      2.02516      4.31411      4.18693        -0.099355      1.954913      0.365463
O	      3.96622      6.20350      4.08524        -1.937887      0.107949     -1.030857
O	      4.09081      4.15137      6.38542        -0.958961      0.029335      1.180120
O	      6.21120      6.24275      6.24933        -0.146504      1.267580      0.156847
O	      6.11255      4.10470      8.28510        -0.226436     -0.523269     -0.941941
O	      8.27832      6.28015      8.47797         0.230001      0.173947      0.429476
O	      2.06320      6.14993      6.08191         0.058261     -1.716927     -1.421669
O	      4.19508      8.22819      6.47109         1.415927      0.307991      0.752850
O	      4.10164      6.07993      8.49563         0.497698     -0.448417      0.512724
O	      6.28201      8.29103      8.23678         0.414926     -0.582571     -1.206896
O	      6.10055      6.20032     10.40832         0.504374      0.145855     -0.235156
O	      8.24439      8.31316     10.30490         0.012258     -0.993988     -1.495039
