# total energy = -171.90273078 eV
 
CRYSTAL
PRIMVEC
0.007739 6.427923 6.147714 
6.385659 0.009709 6.145626 
4.243059 4.270177 0.020770 
PRIMCOORD
27 1
Sc	      4.27962      8.56912      8.18931        -0.168733      0.261326     -0.620594
Ti	      8.53981      4.32029      8.06943         0.218555      0.573922     -0.913606
Mn	      4.21719      8.55822      4.18987        -0.296646      0.500682     -0.393592
Cr	      2.12055      6.43388      4.17160         0.076161      0.906252     -0.228511
Cr	      6.40497      6.41491      8.17886         0.720686     -0.772968     -0.554582
Fe	      6.32572      4.29126      2.06832        -0.521841      0.189121     -0.695986
Fe	      4.29454      6.22647      6.13296        -0.518589      0.451799      0.397305
Cu	      6.34150      2.21285      4.21223        -0.408385      0.582452      0.490540
Cu	      6.48320      6.38433      4.22832         0.777471     -0.425285      0.026441
O	      6.39487      2.15565      6.07773         0.005274      0.175005     -1.029096
O	      2.14619      2.23141      2.19095         0.644013     -0.478911      1.171907
O	      4.16596      4.26264      2.06568         0.103782     -0.676700     -0.191392
O	      4.25747      2.11314      4.08322        -0.013126      0.222927      0.027005
O	      6.38840      4.28710      3.94493        -0.041492      0.176602      0.198076
O	      8.46774      4.25785      6.29818         0.105238     -0.241182      0.497599
O	      1.96277      4.40116      4.08557        -0.759905      0.055730     -0.127277
O	      4.14325      6.60058      4.13373         0.158682      0.359187      1.122705
O	      4.25675      4.36077      6.12991         0.004002      0.788191     -0.093940
O	      6.29532      6.42704      6.18178        -1.114594     -0.274573      0.323154
O	      6.49896      4.38861      8.31767         0.468899      1.372276      0.859188
O	      8.41974      6.31594      8.28664        -1.113087     -0.702156      1.314655
O	      2.19702      6.42202      6.22796         1.282996     -0.384309     -0.873867
O	      4.24139      8.49821      6.07864         0.096470     -1.489787     -0.295774
O	      4.30583      6.45760      8.14632         0.217224      0.417578     -1.157055
O	      6.37549      8.52309      8.32053        -0.434739     -0.000152      1.382611
O	      6.46215      6.27251     10.21060         0.963400      0.425834     -0.885202
O	      8.67637      8.44773     10.23109        -0.451716     -2.012861      0.249289
