# total energy = -157.67955593 eV
 
CRYSTAL
PRIMVEC
-0.045715 6.309871 6.182012 
6.346454 -0.055415 6.190517 
4.224111 4.205372 -0.029970 
PRIMCOORD
27 1
Sc	      2.10140      4.23472      2.09557        -0.640883      0.947624     -0.318985
Sc	      6.33670      6.22130      4.25520         0.018191      0.117994      1.961804
Ti	      6.23838      6.26736      8.23822         0.162634     -0.590535     -0.740894
Fe	      4.26000      8.37315      8.21948         0.678043     -0.281247     -0.364130
Fe	     10.39173      6.37176      8.25947        -1.167121      1.147701     -0.222712
Cu	      6.32053      6.24928     12.29425         0.122558     -0.449972     -0.708165
Ni	      8.42951      8.33862     12.32178         0.253503     -0.320245     -0.587559
Ni	      2.10829      6.26518      8.23250         0.686867     -0.724112     -0.315438
Ni	      6.33957      2.11573      4.15908        -0.071261      0.264456      0.181405
O	      4.19976      4.20632      6.20338         0.020829      0.033720     -0.220417
O	      2.15084      2.07789      1.97394         0.117917     -0.090286     -0.015800
O	      4.24843      4.21752      1.92261         0.137885      0.038797      0.028974
O	      4.22113      2.09722      3.99066        -0.001862      0.111969     -0.989559
O	      6.35081      4.16297      4.03650        -0.092275     -0.682562     -0.659372
O	      6.32814      1.99001      6.26515         1.007713     -1.110002     -0.095371
O	      8.57425      3.95042      6.16297         1.253955     -0.670891     -0.199910
O	      2.12180      4.09868      4.09092         0.237114     -0.656297      0.175004
O	      4.25465      6.30487      3.93705         0.628813      0.013044     -0.686125
O	      6.36443      6.23689      6.29019        -0.063627     -0.136086      1.030760
O	      6.34555      4.21787      8.22362         0.684598     -0.035384     -0.007350
O	      8.40455      6.24089      8.21893        -0.420321     -0.324650      0.036921
O	      1.99753      6.46429      6.20542        -1.339058      0.767819      0.193182
O	      4.18796      8.50564      6.22255        -0.905989      0.972386      0.769020
O	      4.31181      6.34694      8.18878         0.116251      0.758170      0.140991
O	      6.26563      8.31335      8.23161        -0.963680      0.048829      0.618547
O	      6.30550      6.29966     10.19252         0.056977      0.763277      0.305831
O	      8.31993      8.34729     10.46397        -0.517771      0.086483      0.689347
