# total energy = -180.36103177 eV
 
CRYSTAL
PRIMVEC
0.021576 6.319009 6.250483 
6.305581 -0.002858 6.274965 
4.195872 4.221196 0.005895 
PRIMCOORD
27 1
Sc	      2.07212      6.32245      8.22962        -0.063686      0.350301     -0.236165
Sc	      8.34796      4.20626      4.34867        -0.652624     -0.386826      0.235148
Mn	      4.18302      8.44907      8.23392        -0.627562      0.189857     -0.534013
Mn	      2.16053      6.32716      4.22277         0.691206      0.424217      0.839744
Cr	      4.24463      2.26086      6.28582         0.177290      2.356449     -0.203795
Cr	      4.23550      8.39217      4.21070        -0.239201     -1.626390      1.020778
Cr	      6.32852      6.30997      8.29913        -0.754098      0.022162     -1.725274
Co	      8.41866      4.20550      8.33655         0.116547     -0.519546     -0.477071
Ni	      6.28565      2.13567      4.25116         0.061330      0.451642      0.225964
O	      2.21185      2.05008      2.07976         1.362837      1.063802     -0.115777
O	      4.19648      4.06878      2.07730        -1.192448     -1.218935     -0.207459
O	      4.22232      2.07310      4.31325         1.011388     -0.746078      0.116127
O	      6.35705      4.17246      4.09657         0.389129     -1.174814     -0.585676
O	      6.12585      2.09025      6.27854        -0.784946      0.059710     -0.831237
O	      8.39702      4.31962      6.33566         0.156799      1.304354      1.675895
O	      2.04609      4.38434      4.07932        -0.791520      0.438675     -1.024462
O	      4.04661      6.40653      4.14236        -0.711352      1.729907     -0.026913
O	      4.21136      4.06144      6.28194        -0.011906     -2.241187      0.133612
O	      6.49259      6.30154      6.34658         0.730357      0.099239      1.736386
O	      6.35290      4.32358      8.44203         1.430879      0.961103      1.316219
O	      8.33287      6.37202      8.42713        -0.789016     -1.338792     -0.359997
O	      2.11717      6.30491      6.12405        -0.000508     -0.165845     -1.205453
O	      4.23866      8.40678      6.15950         0.262116      0.047047     -0.336149
O	      4.26498      6.41946      8.36975         0.354648      1.141256      0.580163
O	      6.18218      8.38347      8.39210        -0.783397     -0.422355      0.741668
O	      6.40117      6.28709     10.38008         0.114046     -0.218468     -0.725777
O	      8.44807      8.34573     10.46129         0.543692     -0.580485     -0.026486
