# total energy = -173.54742727 eV
 
CRYSTAL
PRIMVEC
-0.002384 6.280504 6.237017 
6.322202 0.022815 6.211377 
4.219488 4.174753 0.010805 
PRIMCOORD
27 1
Ti	      8.22034      2.10170      6.20620        -1.256532      0.319278      0.429921
Ti	      6.44814      6.29184      8.22668         2.512176     -0.556049     -0.097509
Mn	      0.11395      4.14961      4.20584         0.364223      0.503664     -0.862998
Cr	      8.36967      4.22075      4.19771        -0.048290      1.078133      2.483192
Cr	      4.20736      4.20886      4.20731        -0.834854     -0.150430      0.137519
Fe	      4.19771      2.18959      2.04385        -0.059417      1.050717     -0.338177
Fe	      4.21832      4.18056      8.22369         0.406515     -2.112567     -0.119661
Ni	      6.29391      4.20243      2.07976        -0.698583      0.196402     -0.329043
Ni	      4.20102      6.27793      6.19452         0.308864     -0.350626     -0.361800
O	      2.23103      2.10001      1.92807         0.804449     -0.839432     -0.447215
O	      4.26278      4.11793      2.17440         0.836087     -0.758763      1.111420
O	      4.22382      2.09960      4.05407         0.044237      0.008852     -0.709865
O	      6.32545      4.20582      4.10574        -0.079270     -0.026441     -0.817254
O	      6.40087      2.08304      6.26128         0.647080      0.210402     -0.126010
O	      8.42369      4.08370      6.15046        -0.291341     -0.546052     -1.742223
O	      2.21511      4.19359      4.16863         0.727714      0.032845     -0.051017
O	      4.23837      6.28268      4.16257         0.037822     -0.541528      1.091079
O	      4.22837      4.22730      6.27891         0.059020      1.562980     -0.825670
O	      6.25941      6.21631      6.40637        -1.486479     -0.020400     -0.035517
O	      6.23979      4.29094      8.45570        -0.835896      0.710826      0.888858
O	      8.32173      6.38987      8.31219        -1.264539      1.016911      0.075254
O	      2.14309      6.42030      6.25579         1.350169     -0.002702      0.863611
O	      4.21059      8.34838      6.19593        -0.656585     -1.135421     -0.032257
O	      4.22035      6.29383      8.34598        -0.403551      0.159650     -0.096736
O	      6.32445      8.29029      8.30379        -0.224211      0.324539      0.148591
O	      6.18243      6.17998     10.29725        -1.255950     -1.149465     -0.248964
O	      8.38163      8.47676     10.39150         1.297143      1.014679      0.012469
