# total energy = -162.49343497 eV
 
CRYSTAL
PRIMVEC
0.014033 6.398331 6.190515 
6.170349 -0.013941 6.218200 
4.106190 4.276508 -0.001727 
PRIMCOORD
27 1
Sc	      4.06210      8.57620      8.13285        -0.781558      0.412389      0.231972
Cr	      6.32923      8.49455     10.32558         3.142147     -1.035184     -0.180549
Cr	      4.12928      6.37384      2.11230         1.037556     -0.085654      1.512358
Cr	      8.19597      6.35462      6.20018        -0.608562     -0.820991      0.275330
Cr	      6.16932      4.24665      6.22007         0.775138      0.561544      0.743077
Co	      6.17359      6.39918      8.27287        -1.036165      0.346495      0.341512
Cu	      4.17272      8.46480      4.20565         0.409123      0.085158      1.091174
Ni	      2.11084      6.39525      8.21164         0.565740     -0.226449     -0.230799
Ni	      4.03190      4.28773      4.15596        -0.334566      0.118177      0.491847
O	      2.02508      4.27340      4.13438        -0.515380     -0.003362     -0.113982
O	      2.07834      6.38863      6.27798         0.022994     -0.044269      0.055854
O	      2.00292      2.05952      2.09295        -1.174493     -0.889140     -0.315548
O	      4.12403      4.33469      2.10912         0.658462      0.398541      0.955344
O	      4.20884      2.19664      4.21389         0.891683      0.918831      0.088136
O	      6.12392      4.07713      4.19038        -0.882535     -0.431689      0.647847
O	      6.10977      2.19650      6.22019        -0.504657      0.642232      0.120517
O	      8.14554      4.49765      6.16242        -1.323121      0.618863     -0.370656
O	      4.08207      6.33926      4.05223        -0.343947     -0.175800     -2.108133
O	      4.17532      4.06141      6.16922         0.969379     -0.319854     -1.111433
O	      6.21473      6.24138      6.31105         0.621848     -0.637793      0.735571
O	      6.17102      4.14688      8.29069        -0.129208     -0.163160     -0.549372
O	      8.18299      6.40546      8.11447        -0.108183     -0.032624     -0.818531
O	      4.11708      8.57424      6.13293        -0.037929     -0.099776     -1.470230
O	      4.25128      6.46743      8.26078         1.248043      0.548389     -0.141159
O	      6.19140      8.57420      8.37018        -0.640758     -0.151623      1.162474
O	      6.16918      6.62054     10.20041        -0.059546      0.392871     -1.138912
O	      8.14442      8.57117     10.36202        -1.861505      0.073878      0.096290
