# total energy = -189.39330722 eV
 
CRYSTAL
PRIMVEC
0.023571 6.311121 6.253359 
6.456863 0.002235 6.274264 
4.302916 4.219624 0.003231 
PRIMCOORD
27 1
Sc	      8.54098      4.21085      4.25430        -1.274953     -0.041888      0.385309
Ti	      4.22217      2.20930      2.08059        -0.436020      0.746157      0.178950
Mn	      4.27517      6.21727      6.27545        -0.072268     -0.597892      0.336337
V	      0.04766      0.04852      0.03902        -1.524107      2.689243      4.522781
V	      6.46698      2.18940      4.19926        -0.962746      3.338452      0.139580
V	      6.49539      4.16821     10.34302         0.522911     -1.603938     -1.708009
Cr	      8.65267      6.29303     10.37991         0.830440     -0.602841     -0.968070
Cr	      6.52677      6.32353      8.24782         1.460770     -0.261876     -1.764341
Cu	      6.46867      6.35269      4.24787         0.518788     -0.149419     -0.660653
O	      2.33901      2.07105      2.25060         0.637232      0.135488      1.516265
O	      4.36970      4.09330      2.06238        -0.077468     -0.627903     -3.791994
O	      4.40671      2.09122      4.08657         1.088334     -0.649527     -0.595895
O	      6.52779      4.12014      4.19923         0.472566     -1.832326      0.257360
O	      6.49194      1.99835      6.20185         0.122750     -3.263703     -2.339183
O	      8.82254      4.17997      6.23815         3.917575      0.113893     -0.520798
O	      1.94995      4.26742      4.18903        -1.600043      0.448338     -0.179047
O	      4.17804      6.36809      4.13840        -0.082857      1.371287      1.725270
O	      4.28615      4.37875      6.26171         0.038020      1.099280      0.042989
O	      6.38187      6.30126      6.25367        -1.822945     -0.046043      0.261918
O	      6.46384      4.31677      8.42964        -0.120741      1.288649      2.439827
O	      8.50786      6.33515      8.39355        -1.586282      0.006284      1.427917
O	      2.10429      6.29202      6.14494        -0.967382     -0.062617     -1.222352
O	      4.27457      8.36873      6.31025         0.201540      0.531744     -0.718793
O	      4.45317      6.42677      8.36101         0.880240      0.292736     -1.277337
O	      6.35632      8.34327      8.43554         0.018821     -1.339806      2.064336
O	      6.54560      6.34776     10.38724         0.147627     -0.515607      0.632595
O	      8.67622      8.37839     10.42652        -0.329803     -0.466165     -0.184962
