# total energy = -171.09522263 eV
 
CRYSTAL
PRIMVEC
-0.042328 6.228888 6.187021 
6.408182 0.002770 6.142090 
4.281848 4.131044 -0.007253 
PRIMCOORD
27 1
Ti	      4.34813     10.30816      6.28498         1.254703     -0.948895      0.900078
Ti	      0.07138      4.04984      4.03396        -0.246955     -0.041272      0.221010
V	      6.41259      8.27510     10.11716         0.030830     -0.692081     -2.492675
Cr	      4.23551      6.21662     10.22980         0.018343     -0.741296     -1.110151
Cr	      4.25292      2.11924      6.18505        -0.945163      0.405907      1.052266
Co	      2.12885      0.17659      2.05668        -0.811538      1.200401     -0.861917
Cu	      2.11800      4.11088      2.08461         0.095829     -0.135272      1.192599
Cu	      4.30677      6.18405      6.23002        -0.200826      0.282028     -0.452410
Ni	      6.35748      4.18053      6.22121        -0.156877     -0.267249      0.276398
O	      2.10170      2.16412      2.09468         0.144600     -0.541371     -0.014187
O	      4.43519      4.14071      1.99690         0.556382      0.240741     -0.772950
O	      4.43886      1.99766      4.13290         1.263386     -0.823721      1.286300
O	      6.54606      4.06363      4.04226         0.429595     -1.419296     -0.273836
O	      6.33684      2.01912      6.00919        -1.443286      0.304173     -0.521518
O	      8.61598      4.20570      6.07911        -0.220932      0.953529      0.305598
O	      1.93326      4.17722      4.11929        -0.583089     -0.352854     -1.401180
O	      4.19979      6.32547      4.25908         0.401032      0.187288      1.026906
O	      4.33329      4.13643      6.13216         0.697758      0.143479      0.259670
O	      6.55503      6.16434      6.14617         1.104898     -0.430887      0.264272
O	      6.24977      4.14614      8.31889         0.979677     -0.167010     -0.375241
O	      8.57082      6.06316      8.13401        -0.046025     -0.668698     -2.466735
O	      1.93136      6.26706      6.29913         0.192178      0.056313      1.520632
O	      4.19393      8.41417      6.07195         0.030092     -0.063806     -0.991634
O	      3.99305      6.26364      8.18743        -1.208509      0.239560      0.535003
O	      6.34994      8.22445      8.36885         0.210798      0.765820      2.693587
O	      6.27799      6.22340     10.33990        -0.743161      0.995433      0.287844
O	      8.41996      8.35782     10.27354        -0.803741      1.519035     -0.087728
