# total energy = -156.46261613 eV
 
CRYSTAL
PRIMVEC
0.027182 6.303881 6.274301 
6.176123 0.037101 6.264855 
4.149232 4.227775 -0.007086 
PRIMCOORD
27 1
Sc	      4.20894      2.04513      6.24968         1.721602     -1.504082     -0.046876
Mn	      8.31681      8.43874     12.40922        -0.255503      0.118502      0.014975
Cr	      8.30190      8.45967      8.44995         0.358157     -0.532036      1.912768
Fe	      6.12274      4.31191      2.13709         0.252098      0.415397     -0.138504
Fe	      6.17418      4.24484      6.27252         0.514707     -0.804322     -0.621758
Fe	      1.97975      4.31282      6.21023        -0.547710      1.043186     -0.882451
Cu	      6.17450      6.38882      4.18887        -0.103239      0.731062     -0.216654
Cu	      6.20429      6.28875      8.46411         0.505755     -0.460036      0.510403
Ni	      4.12053      2.15663      2.14447        -0.268369      0.293466      0.063489
O	      4.34999      6.36352      4.19754         0.667247      0.072969     -0.003392
O	      6.20810      6.31936     10.28562         0.007665     -0.073743     -0.577172
O	      2.10372      2.03828      1.79527         0.596025     -0.694265     -0.144909
O	      4.22587      4.20693      2.07160         0.276212     -0.538955      0.103933
O	      3.95319      2.14073      4.19682        -1.323472      0.211185     -0.669968
O	      6.16268      4.49347      4.20966        -0.298777      0.737363     -0.288928
O	      6.28062      2.22211      6.12789         0.518935      1.096750     -0.016657
O	      8.20321      4.14304      6.24887        -1.218680     -0.456815     -0.204092
O	      2.07628      4.06207      4.32831         0.008038     -1.139185      0.210486
O	      4.11071      4.16800      6.40859         0.189312     -0.287812      1.206050
O	      6.23787      6.33569      6.54957         0.315284     -0.015392      0.220163
O	      6.09989      4.17356      8.25066        -1.130123      0.923339     -0.241839
O	      8.23303      6.43359      8.36539        -1.223512      1.740525     -0.131788
O	      2.09117      6.35865      6.25013        -0.183812      0.200306      1.146441
O	      4.13199      8.43936      6.30453        -0.035559     -0.072204      0.582212
O	      4.11189      6.27186      8.41035         0.356160     -0.881680      0.054993
O	      6.25726      8.60204      8.28168         0.180883     -0.102497     -0.447514
O	      8.29654      8.43482     10.49729         0.120679     -0.021025     -1.393412
