# total energy = -152.67775168 eV
 
CRYSTAL
PRIMVEC
-0.014472 6.291200 6.263689 
6.161357 0.014400 6.234552 
4.122615 4.190025 -0.005624 
PRIMCOORD
27 1
Sc	      6.21080      6.28985      4.22856         0.167505     -0.522033      0.484046
Mn	      6.12397      0.10712      6.17600         0.905596     -0.823457     -0.687099
Mn	      6.14936     10.45575      8.31140         0.098166      0.202805     -0.144713
Cr	     10.24782      8.40878     10.42755        -0.559475      0.489436     -0.401257
Co	      8.22375      8.34380      8.36290         0.465396     -1.142567     -0.826726
Cu	      4.05827      4.20259      4.18153        -0.131336     -0.076863     -0.084085
Cu	      4.08953      6.25766      6.27427        -0.428333     -0.065259     -0.218357
Cu	      4.10487      2.13081      2.04958        -0.253030      0.160677      0.247781
Ni	      6.18139      6.31216      8.32246         0.638267     -0.154477      0.105165
O	      8.16870      6.50801      8.30491        -0.386277      1.229198      0.058598
O	      8.28536      8.42659     10.21864         1.651964     -0.105566     -0.633704
O	      2.12024      1.89307      2.09089         1.191887     -0.523479      0.227722
O	      4.25867      4.25619      1.88515         0.275743     -0.289765     -0.582912
O	      4.12367      2.21435      4.02155         0.206011      1.284432     -1.193839
O	      6.07360      4.19415      3.98990        -1.421449      0.124371     -0.648927
O	      6.18954      1.95879      6.16998        -0.447950     -0.369630      0.121826
O	      8.37914      4.22307      6.26429         0.829949      0.501594     -0.355901
O	      2.03762      4.16461      4.07219        -0.322782     -0.363352      0.139816
O	      4.07247      6.29185      4.30703         0.515407     -0.254910      1.024831
O	      4.11661      4.27959      6.45849        -0.084427      0.205672      1.122033
O	      6.06582      6.26979      6.30064        -1.453685      0.127296      0.318996
O	      6.04618      4.23642      8.43079        -1.341299      0.545892      1.210333
O	      2.02682      6.28348      6.38335         0.235545     -0.089465      0.719936
O	      4.09577      8.43813      6.25365        -0.031486      0.458806      0.011750
O	      4.03066      6.13658      8.28519         0.018525      0.109953     -0.589805
O	      6.22199      8.45356      8.34876        -0.109616      0.112384     -0.281271
O	      6.16141      6.20446     10.49884        -0.228817     -0.771693      0.855762
