# total energy = -165.85688983 eV
 
CRYSTAL
PRIMVEC
-0.004229 6.377194 6.213427 
6.293521 0.023503 6.185550 
4.207306 4.244519 0.004206 
PRIMCOORD
27 1
Ti	      2.25370      6.33430      4.21026         1.674448     -1.229354      0.274465
Mn	      6.28267      6.38087      8.24299        -0.068085     -0.306062     -0.731917
Cr	      6.19653      2.21649      4.17947        -2.052374      1.353687      1.329403
Cr	     10.48795      8.54329     10.35218         0.915110     -1.739671      0.822883
Cr	      6.27474      8.48427      6.27102         0.061733     -0.167825     -0.462212
Fe	      2.22832      4.15007      1.91154        -1.163631      0.560089     -0.176990
Cu	      8.29886      4.37624      4.18344        -0.651615      0.937884      0.342258
Cu	      4.19797      4.28323      8.18413         0.525637     -0.015377     -0.641660
Ni	      2.09708      2.12458      0.05333         0.146055     -0.537155      1.144369
O	      6.34008      4.12372      4.06914         0.684111     -1.569908      0.061328
O	      2.08298      2.23004      2.05789         0.337483      0.790835     -0.706282
O	      4.07078      4.28201      2.09609         0.264102     -0.332204     -0.122835
O	      4.34095      2.14239      4.15891         1.629338     -0.688424     -0.087776
O	      6.36653      2.13383      6.07170         0.645731      0.032195     -2.046923
O	      8.39607      4.21640      6.13771         0.286482     -0.882260      0.072403
O	      2.00937      4.35164      4.21633        -0.792680      0.693807      0.183489
O	      4.09130      6.49981      4.09615        -0.972331      1.587078      0.014195
O	      4.06011      4.29122      6.29395        -1.537965     -0.100707      0.626924
O	      6.26831      6.48461      6.37506         0.063720      1.633636      0.592094
O	      6.40185      4.44083      8.32331        -0.550985      0.385831      0.785754
O	      8.26439      6.31262      8.35896        -0.736440      0.171345      0.116276
O	      2.08209      6.32485      6.10406         0.077003     -0.578465     -0.623255
O	      4.22508      8.49684      6.10995         0.500750      0.232543     -1.370244
O	      4.36460      6.33872      8.42928         0.530379     -0.861582      0.231378
O	      6.25797      8.32281      8.28856         1.066021     -0.317927      0.562203
O	      6.38456      6.39067     10.23027        -0.533934      0.260777     -0.363051
O	      8.41416      8.36308     10.25866        -0.348063      0.687211      0.173723
