# total energy = -174.78985347 eV
 
CRYSTAL
PRIMVEC
0.021543 6.281892 6.243116 
6.382410 -0.004227 6.268845 
4.246923 4.196781 0.005351 
PRIMCOORD
27 1
Ti	      4.08680      6.34697      6.32420        -1.213434     -0.098079      0.670856
Ti	      6.37845      6.42028      8.45403        -0.607400      0.206425      0.934171
Mn	      8.46440      6.30568      6.25638        -0.491164      0.180034      0.136020
Mn	      6.37407      4.16808      6.26464        -0.480722      0.638507      0.084001
V	      4.19754      4.24784      4.10548        -0.241992      1.083033     -3.035674
Cr	      2.16334      4.14225      2.04967         1.053084     -0.977959      1.611621
Cu	      2.18342      8.39197      6.23993         0.477411     -0.790061      0.397849
Ni	      6.45314      8.39666     10.44461        -0.272960     -0.344724     -0.798917
Ni	      4.26029      8.32680      4.14359         0.230865      0.012238     -0.077198
O	      2.15619      2.17029      1.98811        -0.048006      2.070132     -1.473858
O	      4.18069      4.19914      2.20327        -1.323580      0.112263      2.518843
O	      4.27124      2.29781      4.30059         0.564056      1.338909      0.770612
O	      6.23807      4.18791      4.25214        -1.104512     -1.096827      1.433434
O	      6.16392      2.23133      6.25870         0.552289      0.852476     -0.958334
O	      8.54853      4.12105      6.30320        -2.093449     -0.110598      0.598155
O	      2.22402      4.18726      4.04691         0.815152     -0.123701     -1.181201
O	      4.26980      6.15626      4.26710         0.024136     -1.268362      0.392815
O	      4.18643      4.33686      6.16973         1.868519     -1.079675     -0.552466
O	      6.45023      6.13501      6.34209         0.502282     -1.132960      0.114762
O	      6.48350      4.22334      8.31048         1.230562      0.404016     -0.667176
O	      8.38679      6.22414      8.20735        -0.188790     -1.573898     -1.108417
O	      2.23770      6.34747      6.32050         1.099680      1.731031     -0.304540
O	      4.46131      8.19199      6.14956        -1.386803     -0.118684     -0.480322
O	      4.42370      6.25836      8.22874         1.124770      0.246486     -0.543017
O	      6.42056      8.26111      8.39334        -0.103509     -0.352203      0.986727
O	      6.42118      6.23541     10.32525         0.052392      0.290898     -0.948746
O	      8.54090      8.34720     10.52222        -0.038879     -0.098716      1.479999
