# total energy = -151.53968018 eV
 
CRYSTAL
PRIMVEC
0.013871 6.290523 6.306311 
6.135184 0.047214 6.273127 
4.125209 4.205970 -0.003113 
PRIMCOORD
27 1
Sc	      6.11045      2.15246      8.35164         0.320725      0.888191     -0.859473
Mn	      6.22758      8.47517     10.49492         0.741903      0.177892      0.421292
Cr	     10.24198     10.53426     12.54290        -0.145005      0.628832     -1.128800
Fe	     10.17119      8.37569     10.46419        -0.609033     -0.071441      0.432825
Fe	      2.11460      4.18463      6.23840         0.347527      0.100227      0.269240
Cu	      4.07120      2.05141      2.13590        -0.261984     -0.422952     -0.047471
Ni	      2.06251      4.19439      2.10204        -0.433020     -0.056000     -0.180030
Ni	      4.12296      4.22876      4.22423         0.254802      0.098172      0.777089
Ni	      6.15910      6.32730      8.35942         0.010047     -0.287875     -0.283522
O	      4.15698      6.41930      8.38804         0.402306      0.355992      0.057866
O	      2.10955      2.15905      2.08467         0.530118      1.235839     -0.084446
O	      4.13429      4.19124      2.00015        -1.009460     -0.119032      0.172636
O	      4.24839      2.17033      4.09927         0.748338      0.738692     -0.530117
O	      6.14099      4.05291      4.23518        -0.568466     -0.649416     -0.075206
O	      6.17803      2.03482      6.15592         0.105453     -1.388392     -0.432963
O	      8.37142      4.23974      6.33924         1.448911     -0.245956      0.723690
O	      1.99239      4.20771      4.22670        -0.028835      0.013124     -0.434831
O	      4.11475      6.36760      4.14953        -0.188608     -0.366207     -0.703039
O	      3.94733      4.25633      6.27251        -0.961426     -0.489685     -0.634440
O	      6.18151      6.54416      6.30571         0.451909      0.846988      0.714508
O	      6.13054      4.25502      8.45130         1.146221      0.092069      0.925321
O	      8.20789      6.25549      8.36531        -0.401351     -1.240699      0.158575
O	      1.93013      6.08691      6.33305        -1.145419     -0.229855      0.115195
O	      4.21092      8.46886      6.25690         0.781157      0.707626      0.211575
O	      6.12213      8.38364      8.52479        -1.087449     -0.561048      0.130006
O	      6.15795      6.37973     10.59000        -0.132184      0.119102      0.262529
O	      8.18874      8.43786     10.49645        -0.317178      0.125812      0.021989
