# total energy = -179.93061190 eV
 
CRYSTAL
PRIMVEC
0.022990 6.374380 6.240686 
6.328651 0.013758 6.249625 
4.223225 4.259827 0.005425 
PRIMCOORD
27 1
Ti	      2.19063      2.02740      4.10384         1.459063      0.374120     -1.653881
Ti	      4.07157      6.39475      6.31927        -1.668736      0.307770     -0.110232
Mn	      4.29452      2.12320      6.19901         0.663729     -0.142331     -1.428977
Mn	      8.43598      8.51224      8.40295        -0.658190      0.574521      0.364404
V	      4.26862      6.24940      2.01715         2.670701     -2.480653      0.133082
Cr	      4.20105      8.49107      4.18679        -0.305868      0.624661     -0.060382
Co	      6.30848      8.48673      6.27127        -0.075129      0.541931      0.167748
Co	      6.34599      6.38577      8.38476        -0.511953      0.203218      0.671975
Cu	      6.36464      6.44970     12.39695         0.091113      0.268830      0.310085
O	      1.99022      2.18749      2.18907        -2.608045     -0.166474      0.868405
O	      4.25542      4.44659      2.04221        -0.116546      2.866921     -0.939002
O	      4.09508      2.21839      4.23172        -1.214734     -0.602295      1.693004
O	      6.32933      4.43680      4.16033         0.163107     -0.013637      0.008421
O	      6.44189      2.30765      6.39615        -1.605427     -1.123849      1.180412
O	      8.58906      4.47817      6.20634         0.988616      1.018129     -0.039546
O	      1.98611      4.11283      4.20991        -1.627528     -0.202795      1.788075
O	      4.26404      6.39813      4.17159         0.487382      1.159621     -0.683559
O	      4.23895      4.23777      6.36887        -1.389132     -0.202417      0.780939
O	      6.18704      6.35494      6.19770         0.979061      1.439540      0.261664
O	      6.22465      4.18349      8.43187        -1.034353      0.255694      0.787376
O	      8.56449      6.33935      8.17967        -0.084297      1.798327     -0.230134
O	      2.17288      6.30875      6.24047         0.115496     -1.655391     -0.113302
O	      4.13429      8.30967      6.20630         1.341070      0.186500     -0.968951
O	      4.25490      6.41899      8.17584         0.949421     -2.178521     -0.056546
O	      6.46930      8.43983      8.36017         1.302424     -1.033637     -1.832617
O	      6.37116      6.22682     10.44031        -0.060228     -1.748491      0.010794
O	      8.50766      8.51186     10.30270         1.748981     -0.069294     -0.909254
