# total energy = -167.91714337 eV
 
CRYSTAL
PRIMVEC
0.027630 6.256793 6.115598 
6.486233 -0.003132 6.145460 
4.311411 4.179038 0.010440 
PRIMCOORD
27 1
Sc	      2.30465      4.19805      1.98665         0.795451      1.071941      0.840003
Mn	      0.08961      2.09039      2.01737         0.127443     -1.330813      0.895418
Mn	      2.21767      2.09106      4.12099         0.144575      0.452809      0.573933
Mn	      8.58567      8.36401      8.15984        -0.838797     -0.488263     -0.399643
Cr	      6.43112      6.27388      8.17775        -0.015615      0.987252     -0.259922
Fe	      6.33703      2.07239      4.14206        -0.956002      0.145233      0.027926
Co	      8.58689      4.17674      4.12629         0.386999      0.952472     -0.151580
Co	      6.49981      4.18494      6.15132        -0.713657      0.557841     -0.442220
Ni	      2.31777      8.22918      6.05956         0.262906     -0.571407     -0.139656
O	      2.20607      6.27108      6.04531        -0.053606      0.399249      0.098115
O	      2.26915      2.10631      2.16099        -1.749655      0.137368     -0.473256
O	      4.30037      4.38142      1.99053        -0.074796      1.545176     -0.037811
O	      4.27790      1.96515      4.13433        -0.389598     -1.594803     -0.176728
O	      6.59688      4.21610      4.20687         0.646169     -0.009628      0.808978
O	      6.52037      2.22672      6.16214         0.802814      0.916496      0.404064
O	      8.46340      4.12714      6.05876        -0.713338     -0.792360     -0.668403
O	      2.24853      3.98072      4.07923        -0.323169     -1.195510     -0.256063
O	      4.58180      6.25311      3.95353         1.114418      0.342371     -0.835327
O	      4.56089      4.17773      6.26037         1.357098      0.114954      0.825294
O	      6.52203      6.12118      6.11791        -0.234416     -1.648054     -0.039440
O	      6.57102      4.16097      8.11168        -0.884975     -0.149433     -0.728831
O	      8.50918      6.32311      8.26764         0.675879      0.755418     -0.053335
O	      4.26968      8.34280      6.12589        -0.369751      0.019917     -0.090628
O	      4.43402      6.14252      8.28894         0.459173     -0.898411      0.794401
O	      6.42138      8.25967      8.26853         1.888681     -0.859308      0.080436
O	      6.25734      6.32904     10.18057        -0.996137      0.350533     -0.565599
O	      8.45884      8.47610     10.15764        -0.348092      0.788961     -0.030127
