# total energy = -182.14074680 eV
 
CRYSTAL
PRIMVEC
-0.001916 6.307609 6.438127 
6.331840 0.011008 6.425091 
4.234564 4.209909 -0.006119 
PRIMCOORD
27 1
Sc	      4.34186      8.35498      8.50408        -0.116852     -1.191815     -1.199211
Sc	      8.27152      4.25479      8.51708         1.069828     -0.409919     -0.055351
Sc	      2.20385      6.35527      4.29819         0.276835      1.219813      0.408537
Mn	      6.28931      6.34330      4.35883        -1.027020      0.568945      0.174006
V	      6.35943      0.08946      6.40345         1.973420     -0.192025     -1.256050
V	      8.45623     10.38457     10.72155         1.210811     -4.192053     -1.294166
Cr	      2.13005      6.28437      8.56417         0.772182     -1.284207     -1.003427
Cu	      8.39798      6.40169      6.47304         0.228188      0.484486      0.450282
Ni	      4.26880      4.20256      4.35918         0.105744      0.355758      0.270627
O	      2.13356      2.06633      2.31656         0.614796     -0.474988      1.028093
O	      4.31002      4.18548      2.11224         0.111963     -0.460511     -0.391337
O	      4.17049      1.92076      4.19280        -1.503216      0.461630      0.682182
O	      6.41771      4.16762      4.15351         0.443869      1.766841     -0.304667
O	      6.26685      1.91457      6.47800        -1.589693     -1.048317      0.260486
O	      8.51130      4.29615      6.33441         0.683808      1.214858     -0.383668
O	      2.18438      4.25917      4.21071         0.643745     -1.573097     -0.632326
O	      4.24930      6.29617      4.36695         1.486094     -0.831069     -0.169282
O	      4.23998      4.11037      6.33233        -0.012790     -1.361569     -0.256752
O	      6.36901      6.33608      6.23449         1.408011      0.019244     -0.858206
O	      6.36045      4.22646      8.53091        -1.771123      0.127441      0.024435
O	      8.41653      6.29714      8.72364        -0.249729     -0.882898     -0.674659
O	      2.01096      6.38264      6.49505        -2.516653      0.050717      0.519597
O	      4.15029      8.68826      6.49578         0.061117      1.799023      0.620026
O	      4.16265      6.28875      8.69728        -1.163899      0.372954      2.347820
O	      6.33033      8.51155      8.54762         0.269112      2.197318      0.020065
O	      6.26236      6.33922     10.86212        -1.258553      0.085835      1.763185
O	      8.45521      8.58936     10.79869        -0.149993      3.177604     -0.090237
