# total energy = -170.61094290 eV
 
CRYSTAL
PRIMVEC
0.022306 6.210578 6.356360 
6.276693 0.015312 6.363698 
4.171014 4.131605 0.024477 
PRIMCOORD
27 1
Ti	      6.32365      6.06305      4.33198         0.983337     -0.565112      0.841616
Mn	      2.07369      6.16713      4.23932        -0.395163     -0.581141      1.149796
V	      8.30616      4.14888      8.42816        -1.008485     -0.242683     -1.759775
V	      4.21458      4.17659      8.45917        -0.888962      2.168562     -1.737410
Fe	      4.31233      8.26400      8.44520         0.572135     -0.302615      0.438705
Fe	      6.25034      2.09522      4.37366        -0.845885      1.395332     -0.052816
Fe	      4.18154      6.22155      6.34014         0.178555      0.557145     -0.149312
Cu	      6.30377      2.04603      8.38658         0.513372      0.006107     -0.123809
Ni	      0.02350      6.19538      6.33957        -0.190947     -0.418619     -0.286251
O	      2.23911      2.13292      2.23826        -0.600512      1.572763      0.125719
O	      4.08752      4.14569      2.07535        -1.167784      0.142064     -1.098177
O	      4.15400      2.07887      4.19381        -0.063334     -0.090181     -1.301716
O	      6.28691      4.18921      4.27277         0.064563      0.338815      0.365011
O	      6.26026      2.05876      6.32955         0.052241     -1.262630      0.257112
O	      8.34726      4.17237      6.64611         0.667247      0.031396      2.390022
O	      2.09609      4.10885      4.04055         0.019260      1.139335     -1.145702
O	      4.30194      6.18764      4.24985        -0.938911     -0.053753      0.025002
O	      4.16577      4.23201      6.50094         0.031450      0.470538      3.231407
O	      6.23310      6.25545      6.18950        -1.101768     -0.224147     -0.520774
O	      6.25581      4.01921      8.48548        -0.495212     -0.584782     -0.073042
O	      8.23429      6.16053      8.66321         1.124456      0.479401      0.200247
O	      2.16559      6.18938      6.15041        -0.033199      0.019611     -1.180514
O	      4.21514      8.24889      6.46687         0.141649     -0.101540      0.905819
O	      4.22832      6.26273      8.36079         0.126710     -2.442756     -0.581548
O	      6.29314      8.35147      8.62215         1.701915     -0.174410      1.063584
O	      6.26058      6.30378     10.68619         2.040985      0.344645      1.019807
O	      8.30506      8.26462     10.53306        -0.487714     -1.621344     -2.003000
