# total energy = -99.85550189 eV
 
CRYSTAL
PRIMVEC
0.000036 -0.000428 -4.157079 
-2.078182 8.596350 -2.077976 
4.157296 0.000351 -0.000048 
PRIMCOORD
16 1
Li	     -0.00045      0.26941     -4.15785         0.002537      0.019042      0.001322
Li	      2.07877      2.15045     -4.15709         0.000060      0.000614      0.000164
Li	     -0.00024      2.14835     -2.07820         0.000335      0.002952      0.000004
Li	      2.07933      4.03109     -2.07767         0.001144     -0.018113     -0.000866
Ti	      2.08228      6.44910     -4.15656         0.000920     -0.001929     -0.000660
Ti	      0.00407      6.44916     -2.07804        -0.003338     -0.002074     -0.000637
Ni	      0.00159      4.10625     -4.15564        -0.001164      0.057139     -0.001274
Ni	      2.07790      0.19465     -2.07986         0.000221     -0.057192      0.001085
O	      2.07823      2.10442     -2.07855         0.001270      0.248835     -0.000016
O	     -0.00012      8.35214     -2.07876         0.004129     -0.225858     -0.001419
O	      0.00152      4.54632     -2.07767        -0.002686      0.227147     -0.000041
O	      2.08141      6.44955     -2.07822        -0.003548     -0.000940      0.002532
O	      0.00007      2.19660     -4.15659        -0.000165     -0.250646     -0.001496
O	      2.07925      4.54616     -4.15590         0.002475      0.226695     -0.003786
O	      2.07835      8.35215     -4.15774         0.000522     -0.224572      0.002410
O	      0.00271      6.44910     -4.15672        -0.002711     -0.001100      0.002678
