# total energy = -169.24966898 eV
 
CRYSTAL
PRIMVEC
-0.013597 6.321099 6.176856 
6.230538 -0.009055 6.171825 
4.132537 4.189539 0.015238 
PRIMCOORD
27 1
Ti	      4.13767      4.11886      0.15725         0.817705     -0.696215      1.491591
Mn	      4.15977      4.24551      4.10909         0.180572      0.527519     -0.008115
Mn	      6.27753      6.34231      8.20622        -0.078401     -0.129964     -0.399576
V	      2.04683      2.01905      0.14209         0.174369     -0.691578      3.421149
V	      4.08961      0.01273      4.05160        -2.670550      2.121632     -2.041166
Co	      8.30216      6.35465     10.26548         0.662877      0.037108     -0.572414
Co	      4.21439      6.32226      6.13938         0.696926     -0.488057      0.077881
Cu	      8.23493      4.21874      8.26971        -0.368424     -0.041434      0.107224
Ni	      6.15133      2.08312      4.10811        -0.125183      0.261919     -0.202618
O	      2.02571      1.98527      1.89644        -0.136188      0.811602     -2.648504
O	      4.07113      4.09943      2.03075        -1.341041      0.278296      0.084773
O	      4.09262      1.95506      4.14146         1.132414     -1.893551     -0.007480
O	      6.13939      4.13346      4.08250         1.752808     -0.983887      0.033265
O	      6.25207      1.87042      6.20517         1.539134     -0.405265     -1.224252
O	      8.38513      4.02682      6.12560         0.295656     -0.851830     -0.656304
O	      2.19494      4.44069      4.05754         0.802696      0.874622     -0.687990
O	      3.99770      6.40589      4.10752        -0.850402     -1.855207      1.777648
O	      4.16484      4.33020      6.00729        -0.059212      2.186369     -1.118019
O	      6.25281      6.34982      6.33527        -1.957977     -0.332198      0.589246
O	      6.32628      4.39646      8.22888         1.596174      1.093847     -0.258499
O	      8.20715      6.44342      8.35430        -0.874198     -0.797869      1.091645
O	      1.97004      6.33693      6.09866         1.015811      1.330743     -0.815879
O	      4.03093      8.44473      6.19176        -1.566617     -0.790156     -0.167121
O	      4.28487      6.23441      8.30124         0.732650      0.051368      1.270231
O	      6.20572      8.25805      8.26245         0.143412     -0.764358      1.114885
O	      6.25618      6.31493     10.30783        -0.693167      0.621900     -0.196253
O	      8.20563      8.38458     10.48221        -0.821844      0.524645     -0.055346
