# total energy = -195.83376389 eV
 
CRYSTAL
PRIMVEC
0.027675 6.453409 6.333691 
6.375275 0.022306 6.338808 
4.262419 4.317749 0.002824 
PRIMCOORD
27 1
Sc	      8.58089      8.61188     12.51436        -1.112033      0.234197     -1.325035
Sc	      6.33114      4.28942      2.19449        -0.698301     -0.067524      0.785143
Ti	      2.10483      2.28879      4.30189         0.887208     -0.111880      0.804991
Ti	      6.36523      4.22867      6.25400        -0.243560     -0.720582     -0.479296
Ti	      8.59232      8.46442      8.55994         0.690486     -1.535253      0.571408
Mn	      8.53141      4.50129      8.48299        -0.225621      0.797887     -0.263295
V	      4.31362      8.58658      8.49598         0.995382      0.634937      3.489901
Fe	      4.27976      6.45996      6.26582        -0.198915     -0.834440     -0.037073
Ni	      2.14393      4.36209      6.32184         0.467623      0.056047     -0.592165
O	      2.16418      2.10976      2.15603         2.116452      0.461670     -0.259437
O	      4.28089      4.16871      2.13243        -0.820006     -3.085823     -0.160864
O	      4.12070      2.13291      4.12867        -0.179087     -0.244108     -4.278010
O	      6.33264      4.45091      4.32323        -0.049847      1.009970      0.045137
O	      6.43042      2.35090      6.27997         0.518905      0.849625      0.066850
O	      8.31778      4.25942      6.37462        -0.189838     -0.233350      2.015162
O	      2.15532      4.20561      4.27937        -0.300246     -0.709966     -1.238288
O	      4.48176      6.45222      4.23226         0.306880      0.081689      0.716084
O	      4.32252      4.31181      6.44805        -0.162556      1.837524      0.694888
O	      6.45798      6.42399      6.20357        -1.588679      0.375329     -0.710242
O	      6.24642      4.37197      8.29671         0.620500     -0.197686     -0.756627
O	      8.56862      6.63276      8.46167        -0.233533      0.535810      0.515801
O	      2.14112      6.49794      6.38938         1.687030      0.023577      0.468525
O	      4.30370      8.60127      6.44155        -0.058230     -1.354964      1.696882
O	      4.22401      6.48598      8.40264        -0.277405      1.659157     -0.922761
O	      6.49775      8.65481      8.39729        -1.997009      0.578941     -0.350164
O	      6.39999      6.46075     10.58721        -0.002324      0.028081      0.018939
O	      8.56704      8.63239     10.44729         0.046724     -0.068863     -0.516455
