# total energy = -146.22655997 eV
 
CRYSTAL
PRIMVEC
-0.006454 6.178622 6.195558 
6.218838 -0.033831 6.223063 
4.136000 4.127441 -0.012690 
PRIMCOORD
27 1
Mn	      6.21541      2.03928      8.27103        -1.007525      0.367737     -0.331493
V	      8.27934      4.14051      8.24395        -0.774209      2.700393     -1.816924
Fe	      4.19832      4.05005      4.18744        -0.139581     -0.291915      0.363825
Fe	      6.16356      8.17316      6.28658         0.208079      0.771787      0.554455
Co	      2.05613      8.21810      6.20287        -1.221479      1.014548     -0.648787
Cu	      6.22654      8.14659     10.29680        -0.816796      0.016600     -0.057878
Ni	      2.13873      6.15242      8.29366         0.332712      0.131610      0.391364
Ni	      6.14368      4.16445     10.36014        -0.016358      0.112236     -0.563403
Ni	      4.15216      6.18461      6.22473         0.552756     -0.326725      0.042861
O	      6.19793      6.17965     10.31147         0.041309      0.623985     -0.049097
O	      1.97176      2.09879      1.98311        -0.271103     -0.099872     -0.829021
O	      4.07753      4.24696      2.10794        -0.244718      0.251172      0.982477
O	      4.22788      2.12836      4.12690         1.524534      1.300484      0.011142
O	      6.14988      4.04145      4.12125        -0.952641     -1.594666     -0.808254
O	      6.36519      2.02136      6.31953         1.755044     -0.171650      0.186981
O	      8.28592      3.95463      6.41107         0.222177     -1.391210      1.602864
O	      2.09593      4.08990      3.99120         0.341124     -0.335823      0.488308
O	      4.14652      6.13680      4.02528         0.092787     -0.499023     -0.125759
O	      4.02163      4.15245      6.14085        -0.606399      1.153454     -1.009578
O	      6.16643      6.26804      6.19672        -1.156999     -0.220492     -0.161364
O	      6.29479      3.97611      8.32869         1.633420     -0.438732      0.924077
O	      8.43569      6.04352      8.20408         0.431336     -2.615871     -0.028659
O	      2.11541      6.24527      6.23877         0.931208      0.102985      0.767404
O	      4.08911      8.24248      6.13740        -0.122590     -1.097550     -0.818126
O	      4.10799      6.16620      8.20591        -0.256004      0.081300     -0.204649
O	      6.21240      8.24782      8.21935        -0.051033      0.493471     -0.364886
O	      8.23876      8.22189     10.51031        -0.429051     -0.038234      1.502121
