# total energy = -187.85409842 eV
 
CRYSTAL
PRIMVEC
0.022866 6.337791 6.444767 
6.354921 0.039600 6.427703 
4.245761 4.222907 0.017398 
PRIMCOORD
27 1
Sc	      4.26345      4.26074      4.38694         0.356867      0.267090      1.064311
Ti	      4.42174      6.29323     10.75079         1.014005     -1.324379      0.883752
Mn	      2.19926      6.28604      8.56535         1.077288     -0.375842      0.345415
V	      4.28386      8.45379      8.59439         0.919673     -1.510887     -0.125536
V	     10.44083      6.50935      8.57302        -3.516932      3.430889     -0.613916
V	      6.35323      6.37146      4.36332        -1.441265      0.455500      1.900584
V	      6.36651      8.42498      6.44603         3.352981     -2.138614     -0.662243
Fe	      8.47407      8.45953     12.81390        -0.593235      0.694961     -1.210544
Ni	      6.33974      0.06981      6.42553        -0.633111      0.601210     -1.164955
O	      2.14683      2.14479      2.16628         1.052333     -0.981355      0.572466
O	      4.23481      4.24216      2.17636         1.618829     -1.008550      0.086884
O	      4.22398      2.08945      4.23604        -1.823380      0.344592     -1.598026
O	      6.40457      4.34660      4.33742         0.022594      1.827501     -1.488518
O	      6.46558      2.12813      6.57197         0.930497     -1.154572      1.577166
O	      8.51861      4.18226      6.30487         1.127075     -0.822691     -0.438389
O	      2.15576      4.16847      4.36271         0.268751     -1.822627      2.360137
O	      4.29036      6.33794      4.15837         2.803299     -1.016671     -1.244527
O	      4.13051      4.27705      6.40006        -4.322648      0.041309     -0.127950
O	      6.32912      6.43513      6.34084        -0.110272      3.046886     -2.067106
O	      6.40266      4.09928      8.56086        -0.680127     -2.904642     -0.044821
O	      8.66355      6.32911      8.58077         3.280499      0.672675     -0.016601
O	      2.09170      6.36983      6.38655        -1.002039     -1.359796      1.583805
O	      4.20973      8.48090      6.55564         1.094796      0.805617      1.643618
O	      4.29679      6.40933      8.78068        -2.035388      2.228700     -0.412791
O	      6.27148      8.41994      8.50115        -2.017321      1.056022     -2.021429
O	      6.27328      6.38577     10.76656        -1.120373     -0.284234      0.810020
O	      8.46516      8.61246     10.82489         0.376604      1.231908      0.409197
