# total energy = -174.48149165 eV
 
CRYSTAL
PRIMVEC
0.040185 6.213293 6.335817 
6.363876 0.030136 6.345753 
4.263874 4.170266 -0.001211 
PRIMCOORD
27 1
Sc	      6.43627      4.16328      6.39066         0.275241     -0.380512     -0.281507
Mn	      4.29254      6.22998      2.16384        -0.083279     -0.454803      0.184172
Mn	      4.24394      6.28105      6.38816        -0.316324      0.533002      0.417695
V	      8.46699      6.22831     10.56589        -2.931167      0.971586     -1.281227
Cr	      2.18034      2.14533      4.21504         0.834057      0.385236     -1.437174
Fe	      6.40720     10.38080      8.41973        -0.344546      0.302102      0.908724
Fe	      6.36024      8.24895     10.47307        -0.043810     -0.517039     -0.352432
Fe	      8.55003      6.21097      6.35412         0.534491     -0.552158     -0.044198
Co	      6.35981      8.35052      6.39646        -0.230348     -0.038814      0.240804
O	      2.01581      2.06670      2.23560        -0.934286     -1.170585      0.728234
O	      4.37642      4.30692      2.10771         1.325778      0.744456      0.051575
O	      4.22601      2.11673      4.29160        -0.468674     -0.063621      1.154324
O	      6.43908      4.23138      4.18529        -0.103202      0.144689     -0.224567
O	      6.26311      2.12410      6.17735        -0.746405      0.383605      0.434512
O	      8.49333      4.25461      6.34039        -0.397124      1.448573      0.058095
O	      2.17493      4.25185      4.24572        -0.170303      0.160003      1.383804
O	      4.31654      6.25753      4.37630        -0.129120      0.112093     -0.133473
O	      4.26242      4.20282      6.37155        -0.727248      0.256695      0.226879
O	      6.52593      6.26709      6.26496        -0.882426      0.634450     -0.560460
O	      6.38061      4.03627      8.42397         0.008745     -0.945448     -0.154072
O	      8.66517      6.21434      8.51480         1.297343      0.087424      0.874661
O	      2.08246      6.24156      6.27319         1.817062     -0.967590     -0.369725
O	      4.32666      8.21025      6.36566         1.356487     -1.130478      0.110300
O	      4.15340      6.24420      8.32744        -1.237637      0.054614     -1.338211
O	      6.36250      8.38668      8.53680         0.010733      1.465722     -0.744310
O	      6.50440      6.27116     10.48919         3.090481      0.762080      0.112386
O	      8.44202      8.09753     10.56847        -0.804519     -2.225282      0.035193
