# total energy = -179.70238398 eV
 
CRYSTAL
PRIMVEC
0.041332 6.320959 6.165733 
6.394327 0.032553 6.173664 
4.272189 4.228104 0.012757 
PRIMCOORD
27 1
Ti	      8.44711      8.31192     12.24744        -1.241568     -1.811739     -0.364322
Ti	      6.37378      6.17837      4.25798         0.202778     -0.725043     -0.314477
V	      8.61811      4.29760      8.15966         3.849271      1.867804     -0.891400
V	      6.42926      6.35282      8.35591        -0.437051      1.443741      2.957363
Cr	      2.17439      4.31688      6.13479         0.866861      1.192670     -0.057306
Fe	      4.26261      2.12276      2.11115         0.226756      0.074426      0.465710
Co	      4.30401      4.25256      8.22445        -0.859921      0.141822      0.728545
Co	      4.30049      8.40962      4.15859        -0.355549     -0.522495      0.428073
Cu	      6.25625      4.10414      6.03342        -0.083256     -1.215413     -0.674044
O	      2.20864      2.17362      2.05281         0.628546      1.405936      0.330761
O	      4.12916      4.15841      2.11805        -3.044545     -0.836601     -0.014240
O	      4.11664      2.10527      4.07936        -0.805117     -0.038036     -1.046476
O	      6.40134      4.33781      4.05530         0.039399      1.025412      1.678745
O	      6.56048      2.06156      6.17678         1.210993      1.343651     -0.129723
O	      8.57774      4.10893      6.34913        -1.175267     -0.395384      1.548232
O	      2.12864      4.19357      4.05198        -1.788025     -0.914333      0.105573
O	      4.47563      6.37485      4.10058         0.286184      1.831993      0.152806
O	      4.13768      4.27984      6.22372        -0.259144      0.159879      0.934584
O	      6.44991      6.53917      6.19558        -0.195955     -0.006845     -0.421986
O	      6.50982      4.39019      8.20580        -0.088711      0.528883     -0.035761
O	      8.48115      6.27149      8.21170        -1.680946     -1.343855     -0.125181
O	      2.17872      6.38752      6.17897        -0.279705     -0.041905     -0.055439
O	      4.32085      8.48956      6.24094         0.972797     -0.046444     -0.652977
O	      4.47383      6.38505      8.22734         1.884960     -0.092904     -0.237204
O	      6.37619      8.40530      8.17955         0.194022     -1.699142     -1.031399
O	      6.45388      6.39180     10.13122        -0.030125     -1.249735     -2.790775
O	      8.61950      8.47421     10.35787         1.962316     -0.076344     -0.487681
