# total energy = -185.57368460 eV
 
CRYSTAL
PRIMVEC
0.023641 6.454972 6.219225 
6.274914 0.059008 6.184513 
4.202955 4.300342 0.019343 
PRIMCOORD
27 1
Ti	      6.37803      4.25560      6.06795         1.489443     -0.956856      0.935091
Ti	      8.46209      8.54169      8.43793         1.438134     -0.267143      1.961460
Mn	      4.21555      2.11010      6.11769         0.907583     -1.168877      0.174934
Mn	      4.19789      6.47862      6.12801         0.641979      0.204431     -0.775533
V	      6.22481      4.37367      2.18324        -2.537461      2.151988      3.314569
V	      2.05243      4.31658      6.11777        -0.280438     -0.817953     -3.170505
Cr	      4.19361      2.19768      2.14084        -0.405152      0.530473      2.284218
Co	      8.34642      6.51035     10.33274        -1.384724     -0.044690     -1.288086
Ni	      8.42014      8.69343     12.39633        -0.589100      1.050363     -0.637164
O	      2.18622      2.09547      2.04801         1.103270     -3.119373     -0.657829
O	      4.29550      4.19478      2.05819         3.339877     -1.171163      0.067727
O	      4.20345      2.13936      4.06867        -0.013067     -0.029558     -1.273606
O	      6.25392      4.36627      4.20700        -0.057311      0.001840     -3.380249
O	      6.32447      2.37547      6.21481        -0.699390      1.229948     -0.164943
O	      8.25089      4.32113      6.22783        -1.372216      0.803235     -0.312487
O	      2.09739      4.49928      4.21148         0.072117      0.818580      3.277310
O	      4.05479      6.46976      4.23980        -1.274201     -0.016898      1.205491
O	      4.13485      4.28025      6.31795        -0.712578     -0.063533     -0.068908
O	      6.19847      6.46229      6.15194         0.109188      1.340094     -0.006531
O	      6.10834      4.39898      8.14449        -1.034039     -0.148408     -0.844481
O	      8.39097      6.62688      8.36027         0.017806      1.119896      0.004425
O	      2.17322      6.46420      6.19685         0.745795     -0.737172      0.708787
O	      4.25986      8.62454      6.30349         0.675270     -1.456694      1.085452
O	      4.11435      6.44185      8.18656        -1.580246      0.414143     -0.847073
O	      6.34211      8.71423      8.22438        -0.768226      1.713053     -1.312597
O	      6.43673      6.51477     10.35342         2.238396      0.094858     -0.167673
O	      8.40668      8.57729     10.31202        -0.070709     -1.474583     -0.111799
