# total energy = -102.80705085 eV
 
CRYSTAL
PRIMVEC
0.000028 2.090469 2.090482 
8.299117 -2.192953 2.193010 
-0.028980 4.325859 -4.325809 
PRIMCOORD
16 1
Li	      8.15760      0.09067      4.09013         0.002718      0.009839     -0.008830
Li	      1.94845      2.10627     -0.02094         0.016012      0.000818      0.000306
Li	      4.24568      2.16222     -2.16180        -0.012468      0.000400     -0.000246
Li	      6.36458     -0.24774      2.33859        -0.003572     -0.009727      0.010212
Ti	      1.91445      4.26790     -2.17479        -0.316459     -0.045892      0.044746
Ti	      4.27937      0.00486     -0.00387         0.322790      0.042271     -0.042293
Ni	      8.21835     -0.13496      0.13545        -0.030520      0.044568     -0.043408
Ni	      6.27519      2.21331     -0.12210         0.030620     -0.043760      0.044009
O	      4.05386      1.97267      0.11897        -0.045672     -0.096010      0.097081
O	      4.09453      0.08782      2.00423        -0.018684      0.057909     -0.058939
O	      6.12674      0.04976     -0.04863        -0.411000     -0.053221      0.052500
O	      6.16784      2.09671     -2.09606        -0.006636      0.139197     -0.139536
O	      0.02638      2.17458     -0.08383         0.004939     -0.139674      0.140284
O	      2.14033      2.29964     -2.29772         0.044653      0.099550     -0.100817
O	      0.06727      4.22191     -2.12994         0.406094      0.055632     -0.057080
O	      2.12830     -0.14115      0.14284         0.017185     -0.061899      0.062010
