# total energy = -152.61695268 eV
 
CRYSTAL
PRIMVEC
0.014406 6.188423 6.572388 
6.045768 0.038675 6.544419 
4.061133 4.137979 -0.003230 
PRIMCOORD
27 1
Sc	      7.95730      6.23127     10.97403        -0.047686     -0.407365     -0.108103
Ti	      4.20157      6.33988      6.48435         1.154948     -0.709785     -0.120572
V	      4.05863      4.11303      8.51458        -0.299502     -0.373593     -2.466429
Co	      8.00990      2.13500      6.61763        -0.870402      0.277697      1.350056
Cu	      4.02708      0.05584      4.36431        -0.006224      0.384563     -0.395543
Ni	      6.04547      4.18290      2.22499        -0.507711     -0.348304     -0.443783
Ni	      2.05645      4.06037      2.24517         0.066090     -0.131176      0.444492
Ni	      8.12570      6.10700      6.48650        -0.508175      0.783646      0.010877
Ni	      4.06380      8.25694      4.37913         0.521009     -0.092530     -0.161786
O	      2.03007      2.01925      1.98641        -0.112624     -0.218578     -1.781158
O	      4.07919      4.11690      2.24998         0.230020      0.111644     -0.098616
O	      4.04959      1.90381      4.47720        -0.011583     -0.888612      0.511588
O	      6.23961      4.20563      4.25833         0.831641     -0.011737     -0.266090
O	      6.12448      2.10235      6.54556         1.746471     -0.151444     -0.023805
O	      8.07630      4.07931      6.82865        -0.004115     -0.995234     -0.112237
O	      2.00105      4.16834      4.25503        -1.500133      0.294355     -0.565625
O	      4.02122      6.17639      4.58234        -0.342671      1.150027      0.482967
O	      4.08080      4.13583      6.71307         0.094776     -0.128074      1.297862
O	      6.04817      6.25694      6.56938         0.463988     -0.149850      0.033784
O	      5.86806      4.15523      8.84802         0.476152     -0.047693      0.856285
O	      8.05885      6.37971      8.76748         0.152217      0.112083     -0.106187
O	      2.07839      6.30168      6.52366         0.393637      1.622926      0.380432
O	      3.98739      8.20958      6.53237        -1.750767     -0.076867     -0.597832
O	      4.01338      6.06195      8.50391        -0.892791     -0.621331      0.255080
O	      6.28997      8.34279      8.71761         0.435976      1.185680      0.571870
O	      5.92582      6.20048     10.88272        -0.575954     -1.021413      0.217242
O	      8.08370      8.41687     10.89867         0.863412      0.450965      0.835234
