# total energy = -170.10219271 eV
 
CRYSTAL
PRIMVEC
0.132773 6.457982 6.083539 
6.321915 0.133283 6.081006 
4.277926 4.366266 0.026870 
PRIMCOORD
27 1
Ti	      4.44981      4.39885      4.00098         1.356893     -0.057388      0.383114
V	      0.20675      6.36920      6.00551         0.983587     -0.397382     -1.294586
V	      6.36860      8.78745      6.10480         0.318674     -0.149811      1.314996
Cr	      2.12045      4.30775      2.08540        -0.634541     -0.464502      1.406222
Cr	      6.40342      6.59741      8.17413         0.168228     -0.000724     -0.287738
Fe	      4.27077      2.26531      6.03153        -0.897099      1.130477     -0.539392
Cu	      8.41014      2.31331      6.07384         0.565755     -0.609561     -0.406974
Cu	     10.63414      6.69942      8.17940        -0.190052     -0.079366      0.975551
Ni	      8.40624      4.39546      4.05430        -1.089857      0.265864     -0.955468
O	      2.03974      2.31598      1.93471        -1.262091      0.665156     -0.972796
O	      4.17661      4.20915      2.01881        -1.082093      0.744890     -0.589558
O	      4.27176      2.33414      4.09603         0.016558     -0.079282      1.362726
O	      6.31016      4.40294      4.04624        -0.430057      0.129335     -0.002575
O	      6.30178      2.08661      6.18322         0.492398     -0.338101      1.042095
O	      8.57751      4.58087      6.13375         0.796932     -0.053429      0.275192
O	      2.26989      4.30178      4.14372         0.703398      0.005848     -0.961865
O	      4.31244      6.32999      4.04192         0.396756     -0.578019     -1.697481
O	      4.19402      4.31124      5.98714        -0.939059     -1.347325     -0.669229
O	      6.49691      6.74649      6.15822         1.179633      0.820222      1.093990
O	      6.48200      4.60360      8.14180         1.116918      1.264808      0.045364
O	      8.51110      6.48653      8.11137         0.399444     -0.766251     -1.092894
O	      2.20705      6.32397      6.12190        -2.110513     -1.014657     -0.304907
O	      4.46004      8.73291      6.06351         0.489383      1.762628     -0.029675
O	      4.42198      6.57125      8.12094         0.556019     -0.014737      0.768613
O	      6.51600      8.63143      7.92764        -0.397763     -1.422992     -1.096426
O	      6.39271      6.62711     10.23072        -0.485552      0.007760      1.041997
O	      8.57046      8.81328     10.26633        -0.021900      0.576541      1.191705
