# total energy = -181.28121209 eV
 
CRYSTAL
PRIMVEC
0.021193 6.113511 6.319399 
6.464706 -0.010652 6.350918 
4.299275 4.086248 0.003565 
PRIMCOORD
27 1
Ti	      6.35258      4.08627      6.46506        -0.921247      0.030368      0.715853
Mn	      8.67667      4.15651      8.39021         0.925745     -0.749333     -0.903978
Mn	      6.39127      6.08673      4.16576        -0.829728     -0.423364      0.031236
Mn	      2.25792      4.08147      6.31772         0.987143     -0.500518      0.326118
V	      4.39572      8.17195      8.35651        -0.123779      0.266845     -1.230016
V	      4.28017      8.12741      4.21798        -0.953910     -0.900480      0.137657
Cr	      6.48322      8.11802     10.58935         0.231880     -0.717767      0.934913
Fe	      8.62161      4.09952      4.32115         0.241396     -0.229130      0.155909
Ni	      8.56520      8.12134      8.45805         0.000281     -0.208990     -0.305112
O	      2.35244      2.16281      2.03758         1.423930      0.991570      1.674626
O	      4.36871      3.91271      2.11134        -1.646207     -1.666710      0.025342
O	      4.42067      2.02703      4.12840        -0.356561     -0.773679     -1.124013
O	      6.53304      4.00775      4.39968         0.853371      1.223997      0.490335
O	      6.44273      2.14527      6.27700        -0.066796      0.667870     -1.500278
O	      8.40376      4.09950      6.37575        -0.836385      0.024186      0.780491
O	      1.98915      4.12845      4.06571        -0.813941     -1.557977     -0.101720
O	      4.29279      6.19686      4.17233         1.456490      2.862901      0.117613
O	      4.34819      4.08351      6.38630        -0.179443      0.033130      0.755145
O	      6.49048      6.10326      6.31408        -0.098449      0.552339     -2.192711
O	      6.35562      4.07429      8.39813         0.885334      0.192087      0.672792
O	      8.62441      6.04433      8.44636        -0.031227      0.610505     -0.108775
O	      2.21801      5.95716      6.30079         0.138417     -0.452574     -0.061955
O	      4.53960      8.11929      6.37973         0.949435      0.209853      0.331589
O	      4.26151      6.25547      8.58501         0.017495      0.735990      0.807771
O	      6.44185      8.12847      8.54370        -1.111698      0.096743      0.350198
O	      6.30948      6.09490     10.64542        -0.432742     -0.973773     -0.064610
O	      8.60044      8.19748     10.53140         0.291196      0.655912     -0.714418
