# total energy = -171.25336095 eV
 
CRYSTAL
PRIMVEC
0.015174 6.247757 6.168088 
6.311534 0.009434 6.174154 
4.203845 4.165409 0.010076 
PRIMCOORD
27 1
Ti	      2.20182      6.32647      8.16548         0.694488      0.892521     -0.656417
V	      6.28582      6.31412      8.27489        -1.471155      1.252994      0.830993
V	      4.19819      4.22233      4.15254         1.021800      1.689802      0.872525
Cr	      6.32240      6.23738     12.30095         1.173000      1.351763     -0.181879
Cr	      4.25070      2.10710      6.17377         0.891637      0.359533     -0.315530
Co	      2.06248      4.08953      2.03814         0.251154     -0.704901     -0.860832
Co	      6.31255      6.23325      4.20203        -0.263616     -0.484482     -0.325138
Cu	      8.43190      8.33437      8.26819        -0.018771      0.474015      0.132679
Ni	      4.16503      8.28530      4.16083        -0.347670     -0.378184      0.542466
O	      2.13525      1.97234      2.07830         0.102203     -0.342251      0.886996
O	      4.32301      4.12403      2.06297        -0.380373     -0.093198      0.500857
O	      4.16689      2.27104      4.17453        -1.479096      0.567693      1.198010
O	      6.20791      4.16106      4.03360        -1.972802      1.395913     -0.051054
O	      6.22015      2.00344      6.18211        -2.058457     -1.272294     -0.114801
O	      8.49290      4.24888      6.22524         0.909056      1.154747      1.248771
O	      2.17324      4.15716      4.03161         0.504877     -1.627991     -0.707743
O	      4.21637      6.08932      4.13434         1.433836     -1.169913      0.143755
O	      4.23298      4.11230      6.11382        -0.103138     -1.817510     -1.424141
O	      6.36754      6.24989      6.36880         1.707833     -0.009226      0.198915
O	      6.28710      4.26922      8.27055         0.105381      1.356903      0.489117
O	      8.30126      6.28804      8.20822        -1.067242     -0.213777     -0.866420
O	      2.03415      6.24268      6.27635        -1.785658     -0.140053      0.448349
O	      4.21884      8.41429      6.12700        -0.071090      0.471261     -0.671461
O	      4.20159      6.22547      8.21831         0.936626     -1.085099      0.098027
O	      6.39633      8.30739      8.25693         0.800315     -0.993605     -0.049925
O	      6.29666      6.25403     10.17932         0.096327     -0.626638     -0.960868
O	      8.47889      8.30888     10.21921         0.390533     -0.008025     -0.405252
