# total energy = -159.46400044 eV
 
CRYSTAL
PRIMVEC
0.016759 6.241291 6.266102 
6.259309 0.033682 6.248974 
4.208707 4.185461 -0.013304 
PRIMCOORD
27 1
Sc	      2.13340      2.16814      4.15903         0.113597     -0.676597      0.910660
Mn	      4.24449      8.38759      8.31202         1.003510     -0.233092     -0.735100
Mn	      6.33266      8.27403     10.42662        -0.390855      0.563158     -0.130875
V	      4.15527      6.26409      6.31593        -1.009636     -0.041955      0.506138
Cr	     10.30764      6.31768      8.31773        -3.358802      0.831761      0.102022
Cu	      6.27674      4.19714      6.29456        -0.077836      0.453839      0.493884
Ni	      8.35835      2.18997      6.20008         0.449339      0.138316     -0.590790
Ni	      6.34723     10.40173      8.33728         0.198919     -0.415127     -0.462642
Ni	      4.15085      4.20800      4.16822        -0.669465      0.041712      0.186358
O	      2.13892      2.02814      2.05238         0.213398     -0.335147     -0.036890
O	      4.26650      4.28632      2.05811         0.807968     -0.708701      0.697844
O	      4.26233      2.12424      4.03514         0.088376      0.652144     -0.940142
O	      6.23932      4.08917      4.12953        -0.465614     -0.130072      0.261258
O	      6.26784      2.12352      6.23070         0.679491      1.009773      0.022310
O	      8.16762      4.19737      6.25081        -0.763556     -0.526256      0.050715
O	      2.13590      4.13729      4.18833         0.954114      0.875601     -0.033609
O	      4.22858      6.26162      4.11491         0.650683     -0.663584     -0.158843
O	      4.33227      4.30038      6.24022         0.882910      1.585045     -0.316300
O	      6.13331      6.25237      6.21965        -1.042864     -1.073032     -0.566096
O	      6.29877      3.94469      8.33120         0.228102     -1.208722     -0.841279
O	      8.53690      6.26190      8.30507         2.404974     -0.165272      0.010937
O	      2.32522      6.24982      6.27412         1.781026      0.420288      0.307620
O	      4.21955      8.29973      6.38205        -0.419607     -1.619919      0.813429
O	      4.20036      6.35684      8.21921        -0.525069      1.135425     -0.994167
O	      6.24443      8.37652      8.50399        -1.319536      0.241889      0.810346
O	      6.26522      6.42665     10.45022         0.448179      0.276232      0.118227
O	      8.19156      8.36120     10.44728        -0.861747     -0.427706      0.514985
