# total energy = -92.24361392 eV
 
CRYSTAL
PRIMVEC
0.000002 2.067905 2.067961 
4.018494 -0.000024 0.000028 
-0.000028 8.388495 -8.388902 
PRIMCOORD
16 1
Li	      2.00830      2.03772      0.03539        -0.000033      0.002115     -0.003492
Li	      4.01741      2.14688     -2.14307         0.000090     -0.002133     -0.000114
Li	      4.01766      4.17480     -4.17321         0.000280      0.030149     -0.028212
Li	      2.00866      8.39678     -6.32478        -0.000662     -0.029368      0.028226
Mn	      4.01772      0.01276     -0.00818         0.000627     -0.004008      0.002933
Mn	      2.00818      4.17078     -2.10002         0.001555      0.005666     -0.005325
Ni	      2.00876      6.26954     -4.19961        -0.000563     -0.042221      0.042855
Ni	      4.01803      6.30120     -6.29885         0.000062      0.037033     -0.036364
O	      2.00884      6.21621     -6.21419        -0.001053      0.149122     -0.148228
O	      4.01787      8.46644     -6.39464        -0.000062      0.134505     -0.135316
O	      2.00838      4.10530     -4.10270        -0.000044     -0.134995      0.135636
O	      4.01802      6.35442     -4.28436         0.000302     -0.148133      0.149707
O	      2.00814      2.23971     -2.23684        -0.000190      0.024455     -0.025007
O	      4.01751      4.17700     -2.10631        -0.000397      0.009691     -0.009777
O	      2.00852      0.00667     -0.00190        -0.000254     -0.009034      0.008366
O	      4.01764      1.94377      0.12874         0.000342     -0.022847      0.024111
