# total energy = -187.49425347 eV
 
CRYSTAL
PRIMVEC
0.001937 6.414061 6.335540 
6.234342 0.032244 6.306131 
4.158657 4.258804 0.018627 
PRIMCOORD
27 1
Sc	      4.07791      6.49351      6.31299        -1.546334      0.584775     -0.667151
Ti	     10.29325      4.33334      6.43596         0.835216      1.634836     -0.614307
Ti	      6.27020      2.14839      4.26240         1.771738      0.379397      2.258733
Ti	      4.27807      4.21521      8.41186         2.299581     -1.095167      0.872046
V	      4.12990      4.28971      4.11566        -0.006043      2.298866     -1.893680
Cr	      2.10764      2.13673      4.16686        -0.314607     -1.032567     -1.050531
Fe	      6.26111      6.38154      8.46250         1.119481     -1.908003      0.462835
Cu	      4.13121      2.12224      2.12085        -0.520917      0.205669     -0.030338
Cu	      2.04643      4.31608      6.28695        -0.114691      0.714308     -0.562341
O	      2.21012      2.06670      2.20522         0.812358     -0.023354      1.469506
O	      4.19104      4.36330      2.07932        -0.195237     -0.973077      2.258016
O	      4.18838      2.20834      4.19211        -0.413375      1.816954     -0.844176
O	      6.14853      4.23321      4.30823        -2.808755      0.309536     -0.246603
O	      6.26711      2.04010      6.21308        -0.493731     -1.546767     -0.648954
O	      8.45719      4.26924      6.37129         0.238189      0.184104     -0.118013
O	      2.18816      4.14626      4.09489         2.796566     -0.660499      0.823451
O	      4.25078      6.35260      4.23033         0.876404     -3.220050      0.265103
O	      4.06958      4.34411      6.35081        -1.426855      0.421448     -1.251711
O	      6.20808      6.51733      6.23730        -0.375435      1.443320      0.335774
O	      6.11618      4.25756      8.41264        -1.254896      1.902335     -0.118183
O	      8.25408      6.60202      8.41871        -1.644111      0.574503      0.113952
O	      2.00874      6.34046      6.31901        -0.233167     -1.798165      0.050118
O	      4.18900      8.62779      6.32420         1.311520      0.095407      1.383240
O	      4.19701      6.23800      8.37734         1.386009      0.728311     -0.341974
O	      6.17885      8.55755      8.63892        -0.631998     -1.446372     -0.979100
O	      6.21588      6.58983     10.67214        -0.125427      0.749302     -0.264571
O	      8.17874      8.59759     10.40681        -1.341486     -0.339050     -0.661143
