# total energy = -101.80844809 eV
 
CRYSTAL
PRIMVEC
-0.000077 2.107908 2.107800 
4.371703 -4.343905 4.343662 
4.136033 4.226950 -4.226887 
PRIMCOORD
16 1
Li	      0.25215      1.88380      2.33146         0.040789      0.009006     -0.008647
Li	      2.15718      1.90553      0.20176         0.009415      0.014151     -0.014492
Li	      4.13329      4.38312     -0.16756        -0.011144     -0.015269      0.015703
Li	      1.90328      0.17798      1.92951        -0.044000     -0.012347      0.011969
Ti	      6.21273      2.03349      0.07369        -0.337968      0.098859     -0.098717
Ti	      4.45025     -2.19570      2.19590         0.343537     -0.096861      0.096613
Ni	      4.09675      2.05112      2.16412         0.076811     -0.032102      0.034047
Ni	      6.56634     -0.10543      2.21318        -0.080427      0.030363     -0.032369
O	      4.37674      2.00656      0.10079         0.415667      0.070587     -0.070876
O	      4.32379     -0.15106      2.25863        -0.030041     -0.101631      0.101117
O	      6.33896      2.09685      2.11860         0.034504      0.102533     -0.102711
O	      4.24536     -2.03899      4.14675        -0.026393      0.129157     -0.130065
O	      6.28658     -2.16839      2.16835        -0.422843     -0.070688      0.071468
O	      4.10861      4.20594     -2.09832         0.221296      0.011502     -0.012017
O	      2.18244      2.08318      2.13209        -0.209084     -0.007115      0.008426
O	      6.41803      3.98481      0.23050         0.019882     -0.130146      0.130550
