# total energy = -175.33505415 eV
 
CRYSTAL
PRIMVEC
-0.014730 6.220748 6.233797 
6.411457 -0.012453 6.231096 
4.274167 4.146029 -0.007963 
PRIMCOORD
27 1
Sc	      4.31806      6.24202      2.17766         1.172233     -0.238711      1.004060
Mn	      4.33368      2.08884      2.13872        -0.425679      0.804071      1.080806
Mn	      4.18918      2.06159      6.09097        -0.505924      0.173382     -1.349408
V	      8.51787      2.13964      6.13968        -0.333695      1.458735     -0.141620
Cr	      6.40265      6.21267     12.43336        -0.711237     -0.230757      0.085528
Cr	      2.10732      6.05316      4.20790         0.401235     -2.760435      0.153619
Cr	      8.49290      8.30399      8.34618        -0.400327      0.652828     -0.223569
Cu	      4.35432      6.14846      6.20247         0.359869     -0.384066     -0.719053
Ni	      6.41271      6.17373      8.32358         0.078781     -0.425145      0.183508
O	      6.37311      4.19873      4.11287        -0.010766      0.066257     -0.045897
O	      2.08003      2.13029      1.82078         0.465665     -0.151885     -1.717382
O	      4.24099      4.12372      1.97858         0.370627     -0.819186     -1.486269
O	      4.26551      2.07892      4.03170         0.145611     -0.178187     -0.200621
O	      6.42841      2.01083      6.25101         0.635067     -0.790400      0.540488
O	      8.67639      4.13810      6.12580         0.907878     -1.154758     -0.219137
O	      2.10477      4.26377      4.18373         0.116418      2.449888      0.026240
O	      4.08429      6.23164      4.26137        -1.130821     -0.024153      0.566161
O	      4.26533      4.01683      6.35382         0.014500      0.272246      1.458030
O	      6.54447      6.17916      6.25588         0.146469      0.101970      0.975684
O	      6.26439      4.12074      8.37902        -1.768433      0.732415      0.100351
O	      8.55664      6.24289      8.40577        -0.068329      1.064856      0.269484
O	      2.01909      6.32897      6.16935        -0.245701      1.217388     -0.994972
O	      4.10586      8.34384      6.32983        -1.074833     -0.046787      0.632216
O	      4.32454      6.19528      8.18455         0.786193      0.140896     -1.108045
O	      6.47126      8.23260      8.30288         0.603521     -1.115128      0.011627
O	      6.63063      6.21273     10.43584         0.572688      0.028680      0.453875
O	      8.53783      8.22808     10.48562        -0.101011     -0.844012      0.664294
