# total energy = -180.56806806 eV
 
CRYSTAL
PRIMVEC
0.015798 6.237672 6.416976 
6.229348 0.022772 6.410148 
4.166916 4.167801 0.001052 
PRIMCOORD
27 1
Ti	      6.33615      8.30996     10.63394         2.158223     -0.413929     -1.474774
Ti	      4.22160      6.24740      2.31682         0.247358      1.411326      0.491865
V	      0.11405      6.16872      6.40475         2.348611     -1.745733     -1.344943
V	      8.29098      6.25706      6.40596        -2.118516     -1.519772      2.269692
Cr	      4.12250      8.26165      8.54562         0.286742     -1.328966     -1.797783
Fe	      4.06054      4.21002      4.27503        -0.217163      1.239326      0.602508
Fe	      4.19631      4.30150      8.51135        -0.283819      0.205207      0.830288
Co	      6.22588      6.29603      4.29982        -0.810320      0.280693      0.204883
Ni	      6.30693      4.18388      6.42421         0.574548      0.010382      0.507584
O	      2.03305      2.04625      2.18559         0.573479      0.160619      1.531909
O	      4.16487      4.17749      2.04898        -0.222499     -0.087749      0.420410
O	      4.23126      2.04098      4.21024        -0.888858      1.505315      0.757231
O	      6.15414      4.07423      4.37325        -1.378175      0.785889      0.657583
O	      6.21519      2.06677      6.36675        -1.203139     -0.630954      0.148714
O	      8.45690      4.25860      6.40958         0.223855      2.696823     -0.155030
O	      2.09392      4.13426      4.26984         1.118195     -1.494127     -0.033325
O	      4.10402      6.31769      4.17152         1.099936     -2.119959     -1.263280
O	      4.18486      4.11669      6.51385         0.544542     -1.985341     -1.455885
O	      6.33624      6.21214      6.38546         2.489449     -0.179100     -1.563444
O	      6.21964      4.06954      8.49675        -0.887108     -1.047428     -0.846925
O	      8.47899      6.34624      8.48255         0.547408      0.768978     -2.396351
O	      1.88866      6.25216      6.41708        -2.894725     -0.410677     -0.005019
O	      4.13848      8.41152      6.56230         0.260376      1.987327      1.176242
O	      4.15733      6.25152      8.51507        -0.055170      1.208749      0.085426
O	      6.19977      8.30333      8.69643        -0.510511      0.086041      1.195657
O	      6.24916      6.36126     10.82321         0.237996      0.802344      2.107063
O	      8.20820      8.37271     10.54281        -1.240718     -0.185283     -0.650294
