# total energy = -185.34367155 eV
 
CRYSTAL
PRIMVEC
-0.019694 6.438120 6.305545 
6.392316 0.037780 6.249656 
4.295754 4.287774 -0.008421 
PRIMCOORD
27 1
Sc	      2.12355      4.23992      2.06666        -0.923128     -0.499920      1.079433
Sc	      4.20591      8.57413      4.30370         0.399227     -0.905317      0.276998
Sc	      2.19332      6.40418      4.30537         1.263577     -0.930904      0.825565
Ti	      2.25151      6.50139      8.42303         1.340375      0.897783     -0.570371
Mn	     10.62863      4.38175      6.26989         0.286169      0.157407     -0.058335
Mn	      4.31111      8.61695      8.37881        -0.349697     -0.827553     -0.001560
Cr	      6.41462      8.62521     10.46958         0.247157      1.821890      0.375892
Fe	      6.44390      6.44459      8.17270         0.090233     -0.423867      1.062273
Ni	      6.34371      2.20459      8.31325        -0.221756      0.862240      0.182535
O	      2.07673      2.04512      2.12463         0.931206     -0.510152     -0.123524
O	      4.31883      4.30671      2.17633         0.260857     -0.715551     -1.939473
O	      4.42879      2.13708      3.95753         1.694511      0.151695     -0.719444
O	      6.47582      4.18773      4.01121        -0.184703     -1.997301     -0.241796
O	      6.37882      2.04962      6.20424        -0.456144     -1.545443     -0.104119
O	      8.70949      4.31684      6.29477         1.494559      0.216217     -0.401831
O	      2.00537      4.34460      4.17750        -0.641965      0.844784     -0.825487
O	      4.21555      6.54591      4.15609        -0.758675      0.531557     -1.082247
O	      4.27251      4.28359      6.22770        -0.052212     -0.033050     -0.021660
O	      6.39644      6.45852      6.36298        -0.007740      0.072729     -1.333241
O	      6.42360      4.36638      8.39396         0.557533      0.417385      0.351868
O	      8.50065      6.38631      8.40849        -0.283053     -0.544216      0.178055
O	      1.93000      6.44091      6.42545        -1.407279     -0.020487      0.194378
O	      4.21868      8.78644      6.39873        -0.115119      1.474930      0.682479
O	      4.14874      6.56181      8.29400        -0.133971      1.464586      0.217469
O	      6.42242      8.68875      8.43198        -1.587469     -0.393520      0.717022
O	      6.40945      6.52662     10.32010         0.266951      0.685929      1.274038
O	      8.48839      8.53518     10.51126        -1.709445     -0.251853      0.005084
