# total energy = -186.18916648 eV
 
CRYSTAL
PRIMVEC
0.018241 6.245674 6.286963 
6.302796 0.009249 6.295766 
4.213760 4.181472 -0.005668 
PRIMCOORD
27 1
Sc	      6.34415      6.27807     12.42643         0.314538      0.130395      1.006440
Ti	      4.38305      8.22453      8.43475         2.472590     -0.510334      0.918027
Ti	      8.36337      4.26545      8.48107        -0.632879      1.946343      1.243265
Ti	      4.24025      4.18827      8.37043        -0.340786      0.584725     -1.561323
V	      8.42839      8.29455     12.47964        -0.535436     -2.400131     -2.066004
Cr	      4.21577      6.25686      2.11719        -0.490453      0.112073      1.457807
Fe	      6.25163      6.15183      4.35472         0.017558      0.812786     -1.040996
Ni	      8.39406      4.18606      4.19980         0.019274      0.262260     -0.241581
Ni	      2.14859      4.16581      6.23277         0.671490      0.226039     -0.096921
O	      2.09243      2.16021      2.00277        -0.264816      0.624109     -0.660994
O	      4.10648      4.15610      2.07711        -1.372364      0.477779     -0.762085
O	      4.13042      2.09653      4.03542        -1.513976     -1.100407     -0.419923
O	      6.36099      4.24677      4.19470         0.515953      0.176086     -0.012138
O	      6.34924      2.07828      6.38874         2.918559     -0.458407      0.825147
O	      8.41872      4.10115      6.40353         0.409870     -2.074709     -0.553482
O	      2.10833      4.11968      4.07176        -0.337892     -1.239054     -0.479668
O	      4.30547      6.24482      4.08423         1.145082     -0.139195     -1.659759
O	      4.17066      4.17911      6.50582        -0.523916      0.048073      1.713513
O	      6.34074      6.33443      6.23318         0.088546      0.331286      0.469623
O	      6.30997      4.11842      8.39442        -0.330616     -1.649296     -0.001278
O	      8.47914      6.25548      8.41408         1.414791     -0.020344     -0.001663
O	      2.11973      6.29593      6.26084        -0.489050      3.176653     -0.179076
O	      4.22303      8.33823      6.42745        -1.720194      0.586583      0.098540
O	      4.23523      6.28214      8.40520        -0.132349     -0.525534      0.766228
O	      6.28351      8.36293      8.36372        -0.417586     -0.052838     -0.515904
O	      6.24066      6.25022     10.48183        -0.993062     -0.087809     -1.231655
O	      8.40924      8.36669     10.44172         0.107123      0.762867      2.985860
