# total energy = -187.04746125 eV
 
CRYSTAL
PRIMVEC
0.007138 6.360638 6.365161 
6.371697 -0.017004 6.388973 
4.237129 4.245828 -0.000568 
PRIMCOORD
27 1
Sc	      2.27927      8.49717      6.45974         1.209386      0.932473     -0.849375
Sc	      2.26371      6.26612      4.20606        -1.082523      0.004981     -0.448039
Ti	      6.19476      6.28553      8.51401        -0.864732     -0.995117      1.280583
V	      6.25026      2.13258      4.27948        -2.314841     -0.335016      0.647203
V	      6.38454      4.29352      6.30935         1.717718      0.464465     -0.916086
Cr	      6.30209      8.49118      6.34240        -0.741837     -0.107525     -2.180320
Cr	      8.46731      8.45096      8.50896         0.811543      1.074698      0.740468
Co	      6.23213      4.32651      2.16238        -0.686105      1.582245      0.528457
Cu	      8.53436      6.28668      6.43290        -0.009784     -0.495747     -0.103887
O	      2.15872      2.12100      2.07891        -0.137429     -2.265695      0.197777
O	      4.27122      4.25285      2.12858         1.578841      0.198374      0.082625
O	      4.45798      2.05849      4.32456         2.630572      0.120054      0.739559
O	      6.35824      4.11336      4.34474        -0.352788     -1.597288      0.075459
O	      6.51133      2.21013      6.21141        -0.828482      1.027352     -1.052303
O	      8.34267      4.28938      6.39388        -2.722502      0.270398      0.154024
O	      2.14054      4.23183      4.37945         0.048855     -0.261027      2.194185
O	      4.20730      6.38504      4.20980         1.215868      0.049111      0.072445
O	      4.25521      4.10800      6.50028         0.113408     -0.696042      0.613740
O	      6.25763      6.43930      6.53160         0.888978     -0.574781      0.192663
O	      6.25340      4.36715      8.40989        -0.744301      0.751014     -1.300665
O	      8.33987      6.42509      8.46616        -0.472339      0.951505     -0.302030
O	      2.15553      6.31182      6.32759         0.057659     -0.365500      0.546447
O	      4.31113      8.52702      6.34543         0.735841     -0.031023      0.297927
O	      4.29468      6.23296      8.54864        -0.154808     -1.294743     -0.247197
O	      6.42095      8.41995      8.50819         0.421175      0.783921      0.242729
O	      6.39284      6.47297     10.43757         0.510798      1.752918     -0.736422
O	      8.33064      8.43193     10.55018        -0.828169     -0.944005     -0.469967
