# total energy = -173.74272135 eV
 
CRYSTAL
PRIMVEC
0.007953 6.250732 6.320545 
6.254719 0.006310 6.322440 
4.169058 4.167475 0.004841 
PRIMCOORD
27 1
Sc	      2.09334      2.13761      4.13722        -0.327327      0.208601     -0.262925
Ti	      4.31262      6.12143     10.46202         1.107176     -0.517814     -0.661287
Ti	      4.14477      6.34797      6.35693        -0.350334      0.450863      0.670146
Cr	      6.15432      4.17925      2.11443        -0.929153     -0.488307     -0.263798
Fe	      4.31056      2.10462      6.38009        -0.397712      0.145015     -0.494053
Co	      6.26345      8.33986      6.41977        -0.900599      0.405420     -0.412655
Co	      6.26070      4.14341      6.34699         0.118199     -0.811663      0.850010
Co	      8.30134      6.31308     10.48644        -0.602763      0.615726     -0.267548
Cu	      8.38078      4.16946      8.38451         0.049304     -0.273361     -0.362520
O	      2.06311      2.05726      2.12241         0.019785     -0.086104      0.316321
O	      4.16945      4.16098      2.10488         0.226815     -0.086520      0.190107
O	      4.13196      1.98782      4.32478         0.027510     -0.720765      1.267960
O	      6.30865      4.18989      4.17852         0.792652      0.516992      0.092722
O	      6.21523      2.23276      6.28667         0.198152      1.707545      0.264870
O	      8.20398      4.21212      6.13404        -1.022363      1.082077      0.276807
O	      2.09371      4.18683      4.49009        -0.048200      1.212218      0.606676
O	      4.15086      6.25740      4.43874        -1.040047      0.190686      0.656777
O	      4.28622      4.16832      6.36804         0.066227     -0.331613      0.212668
O	      6.17824      6.19202      6.34152         0.298267     -0.431126     -0.427681
O	      6.40100      4.14996      8.22391         1.291110     -0.178264     -2.015531
O	      8.34875      6.18527      8.37747         0.161883     -1.681991      0.227637
O	      2.15383      6.23697      6.40327         0.915635     -1.199242      0.167107
O	      4.19505      8.19048      6.36675         1.274638     -0.679283      0.210637
O	      4.07626      6.24780      8.44181        -1.539645      0.041307     -0.027907
O	      6.26346      8.40536      8.25621        -0.174404      1.786993     -0.639022
O	      6.16678      6.25495     10.52490         0.648974     -0.181139     -0.035829
O	      8.35956      8.42111     10.49984         0.136220     -0.696253     -0.139689
