# total energy = -103.92999876 eV
 
CRYSTAL
PRIMVEC
-2.104020 4.298552 -2.104718 
2.016962 4.208312 2.013382 
6.182390 -0.043564 -2.059698 
PRIMCOORD
16 1
Li	      2.05509      4.21481      1.96251         0.020248     -0.017202      0.004423
Li	      2.04980      2.09125     -0.04090         0.017721      0.008132      0.000181
Li	      4.07134      4.21705     -0.02836        -0.018170     -0.007743     -0.001859
Li	      4.06626      2.09373     -2.03199        -0.021156      0.015351     -0.004726
Ti	      1.89906      6.36026      0.01847        -0.138591      0.006744      0.134294
Ti	      2.11822      4.24677     -2.19252         0.138503     -0.008111     -0.137028
Ni	      6.10322      4.20657     -2.06738        -0.037347     -0.000926      0.036286
Ni	      4.09634      6.35686     -2.16664         0.039578     -0.000031     -0.034743
O	      2.00592      6.23269     -2.05284        -0.094121     -0.070043      0.043471
O	      2.01119      4.37404     -0.12146         0.093009      0.070991     -0.043355
O	      1.96683      2.26722     -2.09041        -0.032699      0.082251      0.105652
O	      4.02669      4.26825     -2.09797        -0.285021     -0.102329     -0.010230
O	     -0.00954      6.33845     -0.07634         0.285086      0.103503      0.012463
O	      0.03311      4.13123     -2.09719         0.032673     -0.079776     -0.105835
O	      6.13689      4.14529      0.01148         0.002101      0.108983      0.263909
O	     -0.01591      2.16301     -0.08105        -0.001813     -0.109795     -0.262902
