# total energy = -158.34594004 eV
 
CRYSTAL
PRIMVEC
0.060175 6.323729 6.282236 
6.210351 0.076834 6.264844 
4.177773 4.242213 0.014096 
PRIMCOORD
27 1
Sc	      4.10960      4.12624      0.16028         0.577460     -0.833274      0.692712
Ti	      2.22408      6.19973      4.20505         0.921859     -0.669282      0.572389
Mn	      6.25763      8.50329     10.38279        -0.232021     -0.225301     -0.048197
Fe	      6.27902      2.30822      8.33926        -0.408607     -0.436954      0.898770
Co	      8.22965      4.32093      4.13135        -0.186084      0.405523     -1.500668
Co	      4.20190      4.25196      4.16264        -1.199506     -0.106834      0.122806
Cu	      2.14473      8.40638      6.31343         0.901410     -0.777722      0.095059
Cu	      6.21268      4.42168      6.26627        -0.216842      0.296702      0.291356
Cu	      6.25445      6.35067      8.32355         0.213386      0.585615     -0.023447
O	      6.30181      6.39985      6.38896        -0.063493     -0.944789      0.582608
O	      4.29227      6.33850      8.47365         0.678969      0.001902      1.438749
O	      1.98748      2.13069      2.00573        -0.693437      0.124226     -1.307980
O	      4.14437      4.36793      2.15526         0.227655      1.249668      1.424993
O	      4.28342      2.27526      4.16396         0.835263      0.443445     -0.197638
O	      6.15752      4.08280      4.06466         0.111895     -0.060375      0.948400
O	      6.23023      2.14784      6.20241         1.003551      0.634831      0.039953
O	      8.24445      4.23379      6.14155        -0.539558     -0.790785     -0.957642
O	      2.22327      4.31194      4.22886         1.475435      0.856801      0.042019
O	      4.16564      6.26212      4.12177        -0.838732     -1.364485     -0.602637
O	      4.29142      4.30894      6.06897         0.577960     -0.101404     -1.895240
O	      6.24443      4.24063      8.45829         0.092759      0.440200     -1.464753
O	      8.37392      6.43635      8.50573        -0.084715      0.002116      0.436902
O	      2.09191      6.33903      6.15907        -0.448713      1.049782     -0.773918
O	      4.12087      8.45681      6.26152        -1.487778     -0.072712      0.088965
O	      6.30522      8.40258      8.52557        -0.197238     -0.825754      0.512748
O	      6.33442      6.50329     10.45952        -0.609039      0.777138     -0.257333
O	      8.21067      8.43764     10.54813        -0.411838      0.341724      0.841026
