# total energy = -190.80015465 eV
 
CRYSTAL
PRIMVEC
-0.009268 6.433997 6.205103 
6.421763 0.013378 6.182838 
4.285275 4.278178 0.005003 
PRIMCOORD
27 1
Sc	      6.46837      8.55746      6.24127        -0.088202      0.410813      0.495854
Ti	      2.18541      8.57416      6.22604         1.714067     -0.800106      0.252610
Mn	      6.39407      0.06325      6.19824        -0.033113     -0.704650     -0.132750
Mn	     10.56809      6.44761      8.31451        -0.789490     -0.022554      1.040506
Mn	      2.20821      2.20478      4.03708         0.122191      1.007383     -0.896211
V	      4.29107      6.37495      6.27318        -0.983663     -0.213417      0.762674
Cr	      4.28390      6.43612     10.21457         0.991498     -0.018000     -1.469504
Cr	      6.39067      8.60118     10.23290        -0.205897     -0.655627     -2.867037
Fe	      6.39682      4.31409      6.26525        -0.136784      0.415651      0.791085
O	      1.93941      2.13820      1.91010        -1.085376      0.123934      0.671807
O	      4.24840      4.43692      1.91665        -0.082691      1.051204     -0.652507
O	      4.36294      2.02388      4.10016         0.011737     -1.619245      0.136768
O	      6.54582      4.22538      4.15503         0.599787      0.735099      1.436222
O	      6.55090      2.10770      6.06194         0.240528      0.942356     -0.155795
O	      8.61660      4.14070      6.06256        -0.845010     -0.365827     -0.652999
O	      2.14418      4.27700      4.20491         0.100462     -2.016382     -0.343200
O	      4.31552      6.44062      4.39320         1.441329      0.009958      0.692112
O	      4.24159      4.41692      6.21463         0.907832      1.929348      0.254808
O	      6.31580      6.45464      6.27166        -1.265928     -0.819329     -1.311563
O	      6.39899      4.12663      8.23980        -0.069334     -1.143213     -1.477386
O	      8.69136      6.43028      8.25069         0.918992     -0.036847      0.068182
O	      2.18958      6.51468      6.17741         0.958399     -0.082512     -0.037399
O	      4.17206      8.54531      6.24269        -0.233118     -0.516584      0.071813
O	      4.25287      6.45704      8.15339         0.216833     -0.183181     -0.698846
O	      6.38251      8.60815      8.28345         0.012038     -0.015175      2.363544
O	      6.32155      6.53102     10.40466        -1.042843      1.377746      1.081513
O	      8.45012      8.68198     10.39394        -1.374243      1.209158      0.575700
