# total energy = -158.41398184 eV
 
CRYSTAL
PRIMVEC
0.008752 6.215037 6.299839 
6.183648 -0.003375 6.311447 
4.113901 4.142770 0.006154 
PRIMCOORD
27 1
Sc	      6.15908      6.22309      4.28114         0.457581      0.906965      0.442542
Ti	      4.20241      8.26038      8.42860         0.382105     -0.044152      1.038021
Mn	      2.06661      6.19367      4.20394         0.186027     -0.484880     -0.044253
Fe	     10.18627      4.16046      6.31494        -0.264362      0.403156      0.102415
Fe	      6.21522      6.17761      8.30632         0.254822      0.508618     -0.109273
Co	     10.27425      6.19213      8.40783        -0.361269     -0.428891      0.271108
Ni	      8.20689      2.05009      6.31276         0.004720      0.072082      0.079207
Ni	     10.27228      8.28579     10.52918         0.014477     -0.003939     -0.154893
Ni	      6.18184      4.12613      6.29616         0.186869     -0.135695     -0.270809
O	      4.28376      4.14110      6.31616         0.298364      0.080508     -0.035848
O	      2.00609      2.04131      2.13756        -0.706463      0.084123     -0.615754
O	      4.13682      4.19138      1.98544        -0.240752      0.779580     -0.978964
O	      4.08519      2.12839      4.01756        -0.188395     -0.220431     -1.360533
O	      6.18323      4.18915      4.32386         0.071401     -0.591762      1.168335
O	      6.17032      2.02647      6.49690         0.624695      0.096513      0.436408
O	      8.22946      4.11169      6.26209         0.042939     -1.377669     -0.037645
O	      2.01491      4.22962      4.24204        -1.185432      0.624842     -0.047632
O	      4.02137      6.23536      4.05125         0.048163      0.789949     -0.492139
O	      6.24897      6.21939      6.37799        -0.334295     -1.066204      0.330519
O	      6.18764      4.06033      8.34888        -0.011379     -0.622296     -0.213109
O	      8.29483      6.19356      8.57351         0.504641      0.011606      0.514627
O	      1.98603      6.21852      6.12749        -0.973425      1.084282     -0.581167
O	      4.06959      8.36959      6.39175        -0.788244      1.062177     -0.472245
O	      4.21115      6.33160      8.40536         0.621614      0.700938     -0.052896
O	      6.09840      8.22784      8.38511        -0.290711     -0.576604      0.004035
O	      6.30950      6.18857     10.46206         0.589960     -1.008527      0.087758
O	      8.26285      8.12177     10.54825         1.056347     -0.644288      0.992185
