# total energy = -187.02573117 eV
 
CRYSTAL
PRIMVEC
0.013985 6.309741 6.547583 
6.248917 0.023645 6.537401 
4.177001 4.210995 0.005024 
PRIMCOORD
27 1
Sc	      4.31492      6.37699     10.94262        -0.194375     -0.135143      0.873293
Sc	      8.22894      4.25189      8.67833         1.080839      0.589314     -0.938588
Ti	      6.24242      4.13959      2.25721         0.213027      0.341887      1.532981
Mn	      6.23901      8.37315      6.52321         0.667630     -0.500740      0.007053
V	      8.18568      2.10324      6.52331        -4.217057      1.618830     -1.201998
Cr	      4.19137      4.21921      4.38025         1.434983     -0.359338      0.578940
Fe	      4.18670      2.12728      2.20364         0.280767     -0.575963      0.468183
Fe	      8.30194      6.39999     10.73569        -0.329341      1.094967     -0.455471
Co	      4.22972      6.28236      6.55533         0.506487     -0.446295     -0.436779
O	      2.06968      2.02896      1.99895         1.470262      0.163681     -1.138067
O	      4.25139      4.26600      2.31700        -0.133207     -1.635216      0.710169
O	      4.20598      2.15184      4.29801        -0.216901      1.462128     -1.452956
O	      6.24527      4.25760      4.20649        -0.857933     -0.085406     -1.554752
O	      6.43749      2.09674      6.52352         3.738053     -0.083029     -0.013850
O	      8.37052      4.09941      6.52460        -0.199799     -2.497872      0.436197
O	      2.16192      4.26875      4.30453         0.917659      0.705639      1.220909
O	      4.07543      6.23061      4.43311        -0.470786     -1.596821      1.772799
O	      4.09874      4.20724      6.38779        -1.271112      1.997122     -0.702801
O	      6.25970      6.49423      6.54128        -2.121020      0.665132     -0.103227
O	      6.28517      4.23090      8.68883        -1.382873      0.267028      0.103916
O	      8.34895      6.32385      8.80414        -0.386661     -0.636887      0.783585
O	      2.06598      6.27828      6.65188         1.838215      0.144221     -0.333762
O	      4.14516      8.38065      6.65123         0.941984     -1.894311      0.974882
O	      4.06084      6.29263      8.81550        -0.489044      1.683977     -0.984341
O	      6.32030      8.57170      8.67899        -1.649733      0.197088     -1.823829
O	      6.33179      6.35568     10.92455         0.887500     -0.101746     -0.321653
O	      8.40113      8.40773     11.09446        -0.057565     -0.382248      1.999166
