# total energy = -155.30697194 eV
 
CRYSTAL
PRIMVEC
-0.007986 6.327813 6.039027 
6.425872 -0.006582 6.036413 
4.274160 4.207646 0.004911 
PRIMCOORD
27 1
Sc	      6.36639      8.45610      6.06036        -0.361679      0.352548      0.285617
Mn	      4.25961      6.33097      6.00627         0.169848     -0.070180     -0.190330
V	      2.28591      1.90901      3.95509         1.303285     -1.604003      0.007669
Cr	      6.40898      2.10651      7.99609         1.312259     -0.846044     -0.854996
Co	      6.52337      8.32987     10.12112        -1.091120      0.546054      0.831009
Cu	      8.53466      6.38955     10.06440         0.145592      0.160929      1.036933
Cu	      4.30831      4.27642      8.04411        -0.119543      0.835390     -0.403327
Ni	      2.15615      4.21333      2.01012         0.356042     -0.842598     -0.324726
Ni	      6.39271      6.26774      8.10013        -0.373650     -0.403356     -0.411565
O	      8.53696      4.20144      6.18063        -0.042358      0.035408      0.582563
O	      8.46402      8.47122      9.99510        -0.317106     -1.206059     -1.136420
O	      2.02659      2.07419      2.13451        -1.175319      0.965508      0.260608
O	      4.11876      4.36242      1.97906        -0.811985      1.766544     -0.081129
O	      4.03618      2.08392      4.04869        -0.718169     -0.272076      0.010394
O	      6.43486      4.36914      4.02253         0.324690      0.390849      0.044699
O	      6.36863      2.14825      5.97287        -0.013756      0.162237      0.275009
O	      2.16774      4.04803      3.97820         0.075202      0.783576     -0.627631
O	      4.45753      6.28418      4.03558        -0.702076      0.204157     -0.199205
O	      4.21842      4.37893      6.07472        -0.125956      0.339435      1.675089
O	      6.26678      6.33315      5.94832        -0.804496      0.624965      0.229915
O	      6.61992      4.16778      8.06947        -0.087858     -0.733910     -0.229662
O	      8.62398      6.40953      8.11376        -0.087249      0.419392      0.866865
O	      2.33934      6.31724      5.96066         0.149371     -0.071480     -1.383305
O	      4.29842      8.24688      6.02710         0.072243     -0.517549     -0.025211
O	      4.33802      6.25223      7.89835         0.394241     -1.211946     -0.458562
O	      6.27272      8.39257      8.19374         1.013905     -0.640746      0.292491
O	      6.41032      6.39103     10.08528         1.515642      0.832958     -0.072791
