# total energy = -182.89612157 eV
 
CRYSTAL
PRIMVEC
0.029454 6.403497 6.251385 
6.449602 0.010888 6.269958 
4.302063 4.283662 0.005085 
PRIMCOORD
27 1
Sc	      2.17727      0.08208      2.16644        -0.147465      0.484157      1.754567
Sc	      2.27762      6.31291      4.05365        -0.815101      0.245741      0.330601
Ti	      6.41123      8.51166     10.40618         0.553421     -0.574579     -0.378980
Ti	      6.32007      4.42906      6.36118         0.215795      0.494731     -0.905799
Mn	      8.53888      2.16826      6.25079        -0.795983      1.385704     -0.423505
Mn	      4.33088      8.55512      8.33412        -0.474604      0.186859      1.439123
Fe	     10.58267      4.30644      6.28099        -1.042440      0.707133     -0.224728
Co	      2.27425      4.21617      6.27881         1.230716     -1.500187     -1.942448
Ni	      4.38345      6.44721      6.20864         0.754767     -0.226917     -0.063784
O	      2.09724      2.12081      1.94068         2.195154     -0.090219     -1.038448
O	      4.35861      4.12971      1.98114         0.320866     -0.994315     -0.954270
O	      4.47270      2.12808      4.01897         0.171452      0.156096     -1.438024
O	      6.47982      4.10545      4.24174        -0.329245     -1.021917      0.275647
O	      6.34610      2.12925      6.15072         2.031136      0.054373      0.083924
O	      8.58954      4.13830      6.24090        -0.366484     -1.542656      0.055085
O	      2.18377      4.28115      4.32994         0.279335      0.141499      2.807638
O	      4.29887      6.44276      4.20779         0.194739     -0.201453      0.901160
O	      4.40445      4.33802      6.27751        -0.108706      0.870355      0.239618
O	      6.48339      6.29285      6.23442        -0.766009      0.088614      0.513115
O	      6.45671      4.28429      8.17505        -0.129245      0.162135     -0.180502
O	      8.62598      6.37300      8.38582        -0.103813      0.064643     -2.059128
O	      2.13723      6.54069      6.28612         0.114733     -0.271652     -0.241372
O	      4.44753      8.62376      6.34603        -0.878507     -0.334671      0.733299
O	      4.28350      6.62125      8.26632        -0.424729      1.306796     -0.941435
O	      6.60500      8.60182      8.40743        -1.797221      0.346539     -0.815884
O	      6.49442      6.53726     10.54917         0.698497      0.876949      1.116816
O	      8.48342      8.51002     10.56553        -0.581059     -0.813758      1.357713
