# total energy = -187.04312471 eV
 
CRYSTAL
PRIMVEC
-0.005008 6.378597 6.397556 
6.188614 0.019056 6.373999 
4.137417 4.248239 0.001211 
PRIMCOORD
27 1
Sc	      6.19630      6.42549      8.50432         1.251963      0.227203      0.258473
Ti	     10.18047      6.47856      8.59737        -2.191445      0.753448      0.867659
Mn	      4.11863      2.14849      2.20165        -0.012817     -1.012284      0.095219
Mn	      6.17484      4.31022      6.23087        -0.023962      1.357462      0.250187
Mn	      0.10291      4.21506      4.31176         0.199432     -0.322561      0.002094
V	      8.21135      8.52703     12.65183         0.112473      0.214875     -1.584736
Cr	      6.15391      0.08136      6.34820        -0.750550     -0.219240     -1.473036
Cr	      6.22616     10.59172      8.56483         1.933454     -0.868284      0.422573
Ni	      4.06534      4.22218      4.27764        -0.769870      0.367112      0.887058
O	      2.03794      2.02658      2.00545         0.970022     -1.077018     -0.760069
O	      4.17479      4.39435      2.04332         0.964404     -1.055534      0.048278
O	      4.10488      2.18282      4.06001         0.087120      0.672324     -0.869680
O	      6.16000      4.23481      4.14574        -0.915619      0.009496     -0.408673
O	      6.19715      2.11324      6.44993         2.202135      0.593283      0.168340
O	      8.22205      4.13398      6.37524        -0.024426     -2.270879      0.000012
O	      2.01845      4.24541      4.29924         0.076782     -0.001673     -0.099781
O	      4.14704      6.41406      4.10677         0.171900      0.561137     -1.079940
O	      4.27854      4.26909      6.29178         1.304081      0.269629     -0.684203
O	      6.22266      6.27491      6.48190        -0.244689     -2.141170     -0.348262
O	      6.19536      4.16681      8.48284         0.004133      0.030380     -0.098058
O	      8.30895      6.39554      8.52468         1.186945     -0.106453      0.074910
O	      1.98148      6.49127      6.50854        -1.006476      1.767475      1.139462
O	      4.10741      8.64618      6.57064        -1.924061      0.636911     -0.355047
O	      4.11111      6.36730      8.52469        -1.230536      2.133609      0.158933
O	      6.15119      8.53323      8.53017        -2.081633      1.016341      0.115950
O	      6.20414      6.27118     10.71417         0.175566     -1.560278      0.922738
O	      8.42582      8.45353     10.87557         0.535671      0.024689      2.349599
