# total energy = -165.53287168 eV
 
CRYSTAL
PRIMVEC
0.002968 6.305090 6.189028 
6.362360 -0.036046 6.227844 
4.223470 4.211274 -0.005849 
PRIMCOORD
27 1
Sc	     10.44209      4.29282      6.21657        -0.281208     -0.005373     -0.264332
Mn	      4.23418      6.31692      6.20341        -0.379537     -0.006030      0.584884
V	      4.26078      4.13365      4.01736         1.701804     -1.418667     -2.213590
V	      6.36026      8.40008      6.28053         0.184145      0.947886      1.519689
Fe	      8.45134      6.48856     10.26003         0.118384     -1.235670     -0.418607
Fe	      6.39722      6.13107      8.32542        -0.113865     -0.577610      0.947717
Co	      2.13976      2.07718      4.13759        -0.050373     -0.029990     -1.987017
Ni	      4.15506      2.05068      2.09071        -0.284427     -0.168155      0.365785
Ni	      6.47166      4.06589      6.22932         0.616781     -1.221273     -0.052708
O	      2.15187      2.08378      2.25495         0.444421     -0.097187      1.860840
O	      4.23827      4.18294      2.20362        -0.124705     -0.423916      1.354918
O	      4.09659      2.19763      4.13102        -0.774399      1.903811     -0.219909
O	      6.22125      4.30995      4.19697        -2.111502      0.907092      0.725588
O	      6.34622      2.06082      6.23238         0.120394      0.950563     -0.154480
O	      8.48206      4.15574      6.20310        -1.079641     -0.109230      0.135084
O	      2.22835      4.06522      4.26106         1.050518     -0.263990      0.803229
O	      4.27122      6.21490      4.23109        -0.119578     -0.999196      0.611620
O	      4.15189      4.27217      6.06085        -0.780102      0.993151     -0.096432
O	      6.38267      6.35839      6.15304        -1.328952      0.631565     -0.386472
O	      6.33694      4.22856      8.22335         0.312242      1.541181     -0.487537
O	      8.37716      6.26100      8.35863        -1.441429     -0.270789      0.071872
O	      2.08872      6.14751      6.09949         0.841190     -1.651055     -0.389474
O	      4.36516      8.36866      6.18851         1.485552     -0.528561      0.375937
O	      4.32238      6.31701      8.11800         1.283715      0.482921     -1.053060
O	      6.34159      8.32674      8.07875        -0.223681     -0.929000     -2.052513
O	      6.42171      6.28626     10.30837         1.079777      0.468962      0.340017
O	      8.49314      8.33590     10.35410        -0.145524      1.108560      0.078950
