# total energy = -159.81837391 eV
 
CRYSTAL
PRIMVEC
5.953870 -0.020667 0.013083 
1.106061 7.680929 0.038665 
1.735312 2.497205 7.229449 
PRIMCOORD
27 1
Sc	      2.83398      3.38359      2.45165        -0.430795     -0.032486     -0.182168
Mn	      2.89467      6.77656      4.85082        -0.091697     -0.912965      0.152931
V	      4.57023      2.45951      0.05152         0.891867     -0.991097      0.359524
Cr	      4.44350      4.27207      4.87382        -0.121969      1.671216      1.067073
Fe	      4.51594      7.72860      7.25926         0.245046     -1.173440     -0.468268
Co	      4.21333      9.34336      4.87579        -0.180853     -0.521210      0.172316
Cu	      7.13363      9.23523      4.78660         0.273088     -0.566655      0.045941
Ni	      7.16176      6.01871      2.41724        -0.360355      0.816667      0.047290
Ni	      5.90534      3.41902      2.45714         0.086783     -0.237830     -0.793629
O	      5.74419      6.82530      1.25701         0.464221     -0.272204      0.400667
O	      5.69726      8.59499      5.89855        -1.045254      0.863645     -1.097323
O	      2.99969      8.32841      6.00731         0.325195      0.400858     -0.650360
O	      7.43376      7.48197      3.83678         0.595519     -0.197215      0.368177
O	      4.17694      7.70022      3.80209        -0.616538      0.765705      0.964739
O	      2.74216      6.72214      1.21265        -0.517571      0.061374      0.796317
O	      7.41102      5.88291      6.12548         0.097259      0.066796     -0.332050
O	      4.34021      5.96998      5.97027        -0.348601     -0.555194     -0.683115
O	      2.96571      5.14612      3.75896         0.214091      0.123586      0.300385
O	      5.83621      5.01078      3.63719        -0.795947     -1.104675      0.215179
O	      4.26380      4.14458      1.02795        -0.378176     -0.087427     -0.054840
O	      1.40861      4.26593      1.27032         0.413271      0.769064      0.756638
O	      3.06633      3.26043      5.89472         1.609556     -0.253668     -1.816368
O	      5.94693      3.63649      6.09303        -0.481070      0.367298     -0.766547
O	      4.40237      2.62653      3.67815         0.323743      0.319114      0.918625
O	      1.49686      2.41580      3.68129         0.077652     -0.374690      0.989849
O	      5.80627      1.80315      1.11072        -1.141490      0.710396     -0.245526
O	      3.09159      1.82829      1.12981         0.893026      0.345038     -0.465458
