# total energy = -159.29410531 eV
 
CRYSTAL
PRIMVEC
6.030802 -0.032520 0.054249 
1.106143 7.643047 -0.030302 
1.803206 2.409774 7.234028 
PRIMCOORD
27 1
Sc	      2.87564      3.32505      2.44048        -0.402592      0.072339     -0.095950
Mn	      5.93627      3.36479      2.41880         0.141231      0.184586     -0.827497
V	      6.28118      4.88545      7.15852         1.377245     -0.281877     -0.099968
Cr	      4.52710      4.18412      4.87144        -0.251021      0.728589      0.657495
Fe	      4.61281      7.59773      7.20563         0.324123     -0.548950     -0.002171
Co	      4.32210      9.22819      4.82758         0.088469     -0.479397     -0.065515
Cu	      7.33202      9.14048      4.83098         0.056661     -0.330658      0.146919
Cu	      2.92573      6.69025      4.78571        -0.174231     -0.483105     -0.001705
Ni	      7.24203      5.99462      2.39052        -0.381145      0.744562      0.115850
O	      5.80277      6.75869      1.23530         0.481739     -0.162513      0.391861
O	      5.80437      8.51770      5.86954        -0.956991      0.781306     -1.148537
O	      3.12311      8.24748      6.00531         0.738902      0.160139     -0.740676
O	      7.47873      7.48171      3.80087         0.270021     -0.271546      0.472598
O	      4.32302      7.65460      3.74800        -0.358668      0.868219      1.134471
O	      2.74777      6.67028      1.18428        -0.548569     -0.770052      0.007901
O	      7.48282      5.74929      6.14685        -0.217461     -0.223452     -0.066701
O	      4.68003      5.75956      6.12266        -0.014901     -0.217606      0.049352
O	      3.06456      5.01631      3.73083         0.560682      0.123719      0.764124
O	      5.96369      4.85694      3.58628        -0.460750     -0.667820     -0.068581
O	      4.25576      4.15211      1.04420        -0.424109     -0.105553      0.011098
O	      1.34721      4.18719      1.28913         0.310828      0.481671      0.866842
O	      3.17250      3.20053      5.91238         1.329347     -0.276087     -1.569837
O	      6.07532      3.44547      6.05266        -0.980077      0.120312     -1.067670
O	      4.50452      2.59691      3.59878        -0.058366      0.384303      0.987269
O	      1.62370      2.33084      3.74291         0.041460     -0.605427      1.078461
O	      5.76807      1.87607      1.14025        -1.374420      0.577492     -0.327112
O	      3.07570      1.76137      1.13439         0.882592      0.196808     -0.602320
