# total energy = -169.52581569 eV
 
CRYSTAL
PRIMVEC
5.950515 0.000000 0.000000 
1.132373 7.653143 0.000000 
1.727183 2.458527 7.218281 
PRIMCOORD
27 1
Sc	      2.87374      3.35635      2.42141        -0.073185     -0.561450      0.393109
Mn	      2.86279      6.72159      4.79354        -0.610128      0.217212      0.194153
Mn	      7.13668      6.03023      2.37056        -0.371328      1.365220     -0.472598
V	      6.20864      4.92794      7.16025         1.457263     -0.968911      0.179722
Cr	      4.49171      4.23735      4.84343         0.243261     -0.004640      1.064929
Fe	      2.77618      5.21448      0.03678         0.938211      0.081138     -0.338304
Co	      4.25388      9.28748      4.82730        -0.080980     -0.546785      0.173788
Co	      7.19557      9.24778      4.80011        -0.002059      0.075800      0.300620
Cu	      5.88617      3.43697      2.36265        -0.010929     -0.349492     -0.631643
O	      5.73542      6.78634      1.20117         1.066443     -0.544062      0.893235
O	      5.71980      8.54719      5.89086        -1.028808      0.697124     -0.777503
O	      2.99580      8.32555      5.97836         0.422442     -0.414257     -1.231910
O	      7.21356      7.67680      3.67442         1.376447     -1.787974      0.422989
O	      4.17220      7.65025      3.76221        -0.681505      0.640973      1.195216
O	      2.71705      6.70002      1.20157        -1.650343     -1.249686      0.756624
O	      7.42231      5.83711      6.04947         0.186061      0.012188     -0.458162
O	      4.61792      5.81722      6.10070        -0.510314      0.117791     -0.255677
O	      3.01845      5.08018      3.72512        -0.067705      0.469103      0.374246
O	      5.89131      4.98025      3.58800         0.140579     -0.376778     -0.910252
O	      4.28999      4.14287      1.04298        -0.523340     -0.110404     -0.129643
O	      1.43153      4.25139      1.24864         0.071168      1.362329      0.855786
O	      3.12828      3.24142      5.88674         1.103726     -0.187406     -1.485547
O	      6.01505      3.44733      5.99087        -1.030553      0.736706     -0.894998
O	      4.45061      2.58238      3.65372         0.025678      0.446445      0.735423
O	      1.53575      2.39354      3.69374         0.159417     -0.397080      0.869829
O	      5.75318      1.85951      1.03898        -1.277295      1.066756     -0.110789
O	      3.09095      1.79443      1.09516         0.727775      0.210138     -0.712643
