# total energy = -172.35491454 eV
 
CRYSTAL
PRIMVEC
0.023024 6.140229 6.314982 
6.336301 -0.008288 6.346694 
4.190744 4.080897 0.027954 
PRIMCOORD
27 1
Sc	      6.43364      8.13960     10.57914         0.273157      0.174110     -0.035254
Mn	      8.37866      6.14511      6.43880         0.256565      0.276133      0.518750
V	      4.28816      8.22799      8.37121         2.591419      1.273582      0.052461
Cr	      6.29450      6.09688      4.23269        -0.061833     -0.231986      1.542998
Cr	      6.34710      4.13183     10.54363        -0.531732      1.195490     -1.320993
Cr	      4.22601      6.04227      6.37594         0.477451     -2.162455     -0.167710
Co	      2.13657      6.15215      8.40420        -0.504482     -0.610378      0.184648
Cu	      8.35749      2.08176      6.36314        -0.329548      0.137485     -0.497733
Ni	      8.35533      4.14705      8.46295         0.129799      0.838343     -0.016612
O	      2.20568      1.99048      2.11382         0.705281      0.376904     -0.066956
O	      4.32201      3.99136      2.09047         0.032149     -2.145732     -0.201935
O	      4.17218      2.01738      4.08944        -0.404270     -0.033887     -0.638825
O	      6.30537      4.10695      4.05560         0.003134      0.936014     -1.383691
O	      6.09579      2.06857      6.30661        -0.596386     -0.024148     -0.534811
O	      8.39125      4.17203      6.42966        -0.105991     -0.138156      1.043212
O	      2.03118      4.02778      4.15772        -1.160741     -1.297936     -1.225614
O	      4.29502      6.17342      4.37315         1.242766      1.684709      1.130807
O	      4.19273      4.01479      6.30126        -0.088072      0.801852      0.065681
O	      6.35478      6.08736      6.23040        -0.160175     -0.115212     -1.649278
O	      6.35292      4.06260      8.60194         0.550130      0.078151      1.745434
O	      8.38486      6.14346      8.28005        -0.161096     -0.683128     -0.634431
O	      2.24242      6.22369      6.46474         0.472820      0.946684      1.042213
O	      4.32307      8.08445      6.47172        -0.613635     -0.874169      0.348517
O	      4.11084      6.18811      8.37478        -0.933613      1.267235     -0.763295
O	      6.21604      8.29247      8.47919        -1.847178      0.422656      0.099822
O	      6.38636      6.11305     10.56236         0.019122     -2.061285      0.180170
O	      8.49782      8.16882     10.71768         0.744958     -0.030874      1.182424
