# total energy = -169.72789961 eV
 
CRYSTAL
PRIMVEC
5.930533 -0.012200 0.019286 
1.365506 7.797623 0.113818 
1.638144 2.670399 7.306815 
PRIMCOORD
27 1
Sc	      4.54289      9.51343      5.15599        -0.406093      0.247374      1.206748
Sc	      3.04237      6.91626      4.98353        -0.302093      0.621569      0.136844
Mn	      7.33607      6.08174      2.47522        -0.718225      0.755256     -0.752849
V	      4.44113      0.93574      2.29650         0.225123      0.570556     -1.539772
Cr	      4.58490      4.35860      4.89871         1.135420      0.113941      2.123350
Fe	      7.44292      4.28613      4.98326         0.152600     -0.109903      1.003152
Co	      7.40543      7.78237      7.35051        -1.230778     -0.186625     -0.673975
Cu	      1.49071      0.91138      2.43300        -0.161513      0.084326     -0.495993
Ni	      3.00506      3.54077      2.42523         0.170150     -0.022314     -0.760073
O	      6.05045      8.68267      6.31021         1.612963     -1.115865      1.381851
O	      2.92990      8.60903      6.18742        -0.449839     -0.912364      0.139803
O	      7.36969      7.74517      3.62133         0.668700     -0.063897     -1.101916
O	      4.61664      7.90522      3.82617        -1.045485      0.570225     -0.240186
O	      2.75171      7.01556      1.43173        -0.642151      0.134267      1.176466
O	      5.75785      7.20938      1.47500         1.028690     -1.095978      0.648205
O	      7.53427      6.01782      6.11214         0.386394      0.054809     -0.270179
O	      4.49381      5.97458      6.02425         0.055736     -1.703007     -1.265953
O	      3.06802      5.15553      3.73314        -1.025049     -0.480869      0.205266
O	      6.09219      5.14996      3.75153         1.008229     -0.384432      0.475992
O	      4.47165      4.41692      1.20560         0.638247      0.346856     -0.758894
O	      1.36757      4.55088      1.27916        -0.240163      1.043411      0.414957
O	      3.09603      3.53066      6.04072        -0.067302      0.824735     -2.022916
O	      6.00521      3.54741      6.03059        -0.877797      0.957322     -1.719997
O	      4.50534      2.58118      3.65100        -0.951504      0.670165      0.213544
O	      1.67362      2.61922      3.71800         0.846072      0.264904     -0.149029
O	      5.71377      1.72575      1.38168         0.099107     -0.697047      1.280449
O	      3.00306      1.73223      1.41668         0.090561     -0.487417      1.345102
