# total energy = -188.32695593 eV
 
CRYSTAL
PRIMVEC
-0.000727 6.531688 6.367548 
6.213410 0.053610 6.314090 
4.170926 4.347124 0.006373 
PRIMCOORD
27 1
Sc	      6.10590      0.11620      6.24600         0.516700      1.346168     -1.142694
Sc	     10.28617      8.75464     10.65733         1.584115      0.060877     -0.015190
Ti	      6.08351      2.36888      8.39615        -1.760469      0.637367     -0.775937
Mn	      4.14144      8.68165      8.42310         0.341154     -0.655538     -0.634276
Mn	      4.14522      4.34957      4.24912        -0.789749      0.295441      0.891925
V	      6.30268      6.52680      4.39548         0.078134      1.542642      1.591019
Cr	      6.26049      6.59767      8.45619         0.681363      0.106910      0.094768
Fe	      2.18847      6.48336      8.39590         0.967322     -1.033258      0.591931
Co	      6.29342      4.33293      6.30597         1.087955     -0.571785      0.366627
O	      1.94100      2.09130      2.30706         1.658977     -0.823777      0.557354
O	      4.17844      4.50646      2.18418         0.752819     -0.983228      0.334443
O	      4.00056      2.16111      4.19529        -0.762409      1.252375     -1.498021
O	      6.17196      4.45993      4.09711        -1.262256      1.206564      1.119626
O	      6.22391      2.23077      6.49418         0.051396      0.608501      1.022136
O	      8.29052      4.41510      6.35210        -2.623729     -0.237524     -0.179331
O	      2.15624      4.10970      4.27334         0.506456     -2.201749     -0.023111
O	      4.22320      6.57897      4.13722         1.480419     -1.021529     -0.256879
O	      4.23740      4.35435      6.11880         1.441524     -0.010557     -1.022683
O	      6.22010      6.47682      6.26656         0.170324     -1.138812     -1.610951
O	      6.23385      4.36826      8.48439        -0.182305     -0.224021     -0.563556
O	      8.36028      6.60101      8.45772         0.344724      0.107503     -0.025483
O	      2.04252      6.54251      6.52137        -0.584242     -0.001491     -0.198592
O	      4.15258      8.87657      6.34717        -0.181199      0.376659      1.607423
O	      4.19992      6.51603      8.42345         0.594306      2.078938      0.122108
O	      6.27295      8.64959      8.44795        -2.362218      0.128595     -0.138110
O	      6.27069      6.52699     10.48270        -0.280985     -0.970678     -0.334781
O	      8.33823      8.73764     10.60277        -1.468127      0.125406      0.120235
