# total energy = -102.98492875 eV
 
CRYSTAL
PRIMVEC
4.095646 -0.000081 0.000018 
-0.000010 4.417114 -4.088622 
-0.000049 6.547807 1.961810 
PRIMCOORD
16 1
Li	      4.09544      6.65175      1.85627         0.000527     -0.011526     -0.004773
Li	      2.04787      2.12563     -0.05299        -0.000079     -0.025492     -0.000113
Li	      4.09550      4.44177     -0.01113         0.000100      0.024267      0.000211
Li	      2.04776      6.46224      0.04212        -0.000006      0.013471      0.004901
Ti	      2.04776      4.32224     -2.03633         0.000731     -0.152918      0.057747
Ti	      0.00065      6.66277     -2.11645        -0.001110      0.142723     -0.054787
Ni	      4.09555      2.10432     -1.94291         0.000115      0.084909      0.053177
Ni	      2.04780      8.87957     -2.20938        -0.000175     -0.086756     -0.053125
O	      4.09553      2.17027      0.07375         0.000247     -0.003247      0.299775
O	      2.04777      4.39635     -0.13756        -0.000514      0.006152     -0.299270
O	      4.09557      4.50824     -2.04807        -0.000060      0.065541     -0.016325
O	      2.04757      6.47578     -2.10474        -0.000132     -0.057640      0.015494
O	      4.09543      6.64102     -0.17860        -0.000062     -0.145973     -0.151420
O	      2.04774      2.38573     -2.08495        -0.000026      0.168998      0.097435
O	      4.09557      8.59872     -2.06728         0.000180     -0.178573     -0.103133
O	      2.04772      4.34269     -3.97406         0.000265      0.156064      0.154206
