# total energy = -169.55330983 eV
 
CRYSTAL
PRIMVEC
5.897506 0.006967 -0.010025 
1.577654 7.823163 0.160921 
1.436063 2.755161 7.317674 
PRIMCOORD
27 1
Sc	      7.44527      9.61925      4.92768         0.512023     -1.019057      0.878712
Ti	      6.06811      5.22926      0.12593         0.873699      0.204374     -0.662785
V	      1.54787      4.53204      4.99397         1.969074      2.051094     -0.201458
Cr	      4.42848      7.77110      0.17211        -2.103063     -2.351738      1.299970
Fe	      5.83617      5.38440      7.34054         0.204841      0.444642      0.035825
Fe	      2.96015      3.61936      2.51186        -0.821533      0.685871     -0.881074
Co	      5.92183      3.51022      2.47319         0.294759      0.502540     -0.313482
Cu	      5.93464      8.68838      2.61385         0.117031     -0.738836     -0.170361
Ni	      4.43046      4.54351      4.96162        -0.411895      0.793981     -0.146376
O	      3.03217      1.67762      1.28732         1.181158     -0.208408     -0.373848
O	      5.67222      1.75032      1.37759        -0.794216      1.416891      0.813313
O	      1.48559      4.30665      1.27325        -1.162318     -1.149735      1.562284
O	      4.43521      4.29027      1.23240         1.283458     -1.341867      0.819675
O	      5.89697      6.75059      1.16724        -0.923792      0.952066     -0.671252
O	      3.06393      7.01130      1.24819         1.769681      1.203359     -1.452439
O	      1.55153      2.84058      3.78966        -1.333621      1.321760     -0.562504
O	      4.38815      2.90299      3.73913         1.144115      1.010289     -0.927147
O	      6.10940      5.17465      3.88867         0.151120     -1.759361      0.172423
O	      2.91845      5.24663      3.73944        -1.037799     -1.702343      1.718646
O	      4.60026      7.94338      3.69626         0.947765      0.223519     -0.408500
O	      7.31512      8.01144      3.70045        -1.038473      0.175393     -0.630223
O	      5.90885      3.61398      6.15843        -0.699518      0.576149     -0.407369
O	      2.86886      3.69004      6.12936         0.277361      0.481628     -0.811910
O	      4.49335      6.13691      6.19393         0.716936     -1.283756      0.057646
O	      7.34829      6.14422      6.24330        -1.172676     -1.608250     -0.256204
O	      2.85106      8.63437      6.22103        -0.927880     -0.193086      0.727759
O	      6.03495      8.89438      6.30155         0.983763      1.312883      0.790683
