# total energy = -174.63347372 eV
 
CRYSTAL
PRIMVEC
5.961364 0.007882 0.013217 
1.469224 7.756047 0.018978 
1.559584 2.605617 7.286158 
PRIMCOORD
27 1
Sc	      2.88770      3.53083      2.41687        -1.039104      0.332229     -0.907474
Sc	      5.89789      8.52927      2.49245         1.283325     -0.857418     -0.242194
Ti	      7.56214      7.63518      7.25948         0.549631     -0.306800     -0.620160
V	      7.56190      9.41443      4.85559         1.927506     -3.938488     -0.393036
Cr	      4.49365      4.35671      4.87325        -0.998399      2.529901     -0.258913
Fe	      4.34016      7.74791      0.06996        -0.881136     -0.641872      0.037544
Co	      5.97105      3.51280      2.45134         0.399488      0.201026     -0.840121
Cu	      0.06938      0.06273      0.00548         0.657237     -0.660874     -0.049556
Ni	      6.01533      5.22364      7.25679         0.694369      0.805749     -0.378805
O	      3.03197      1.73609      1.22850         1.186868     -0.132542     -0.459028
O	      5.90176      1.97517      1.33598        -1.041137      0.650411     -0.006804
O	      1.46361      4.41950      1.17550        -1.382743     -0.849613      1.360730
O	      4.53166      4.36499      1.20353         0.862003     -1.316885      0.751126
O	      5.99571      6.96568      1.12439        -0.114906      0.990680     -1.051261
O	      2.93616      6.99667      1.16128        -0.012112      0.998156     -1.237149
O	      1.39447      2.60367      3.65296        -1.335687      0.588650     -0.160671
O	      4.51774      2.58965      3.72604         1.022057      0.920668     -0.383620
O	      5.90645      5.01300      3.61758        -1.179487     -1.632759      0.398417
O	      3.04155      5.07550      3.68688         1.497571     -0.680791      1.543366
O	      4.52735      7.77482      3.64845        -1.062799     -0.590110      0.725923
O	      7.44840      7.96393      3.78919        -0.449536      2.685628      1.580081
O	      5.95778      3.36521      6.02661        -0.780300      0.218647      0.705953
O	      3.09126      3.42261      6.13420         1.176056     -0.509327      0.501835
O	      4.57059      5.92860      6.03581         0.547103     -1.704665     -0.632012
O	      7.49970      6.17815      6.18621        -1.027634     -0.041064      1.046973
O	      2.88448      8.58773      6.03540        -1.731958      1.663009     -0.698597
O	      6.18896      8.68227      6.18277         1.233726      1.278453     -0.332548
