# total energy = -102.50699108 eV
 
CRYSTAL
PRIMVEC
-0.000047 -0.000249 -4.054062 
-2.021366 9.046851 -2.027037 
4.042672 0.000059 -0.000152 
PRIMCOORD
16 1
Li	     -0.00134      0.10461     -4.06353        -0.000876      0.029593      0.006215
Li	      2.02029      2.00543     -4.02811        -0.002875     -0.014123      0.001095
Li	     -0.00123      4.78390     -4.02764         0.000861      0.011033      0.002169
Li	      2.01941      6.68342     -4.06376         0.002040     -0.027161      0.007174
Ti	     -0.00215      2.19378     -1.90828         0.005355     -0.342971      0.201836
Ti	      2.02041      4.59404     -1.90745        -0.001658      0.327868      0.197540
Ni	     -0.00179      8.88241     -4.07355         0.000350      0.110278     -0.003872
Ni	     -0.00195      6.95217     -2.04693         0.004268     -0.107776      0.005481
O	      2.02078      2.42950     -2.04757        -0.002736      0.040897      0.006641
O	     -0.00177      8.96919     -2.04528         0.001198      0.148423      0.002704
O	     -0.00079      4.35759     -2.04732        -0.002400     -0.037140      0.007833
O	      2.01953      6.43668     -2.05372         0.004843     -0.360908      0.020462
O	     -0.00086      2.25831     -4.11187        -0.001441     -0.006070     -0.234945
O	      2.02045      4.52898     -4.11137        -0.001190      0.006242     -0.235812
O	     -0.00156      0.35024     -2.05356        -0.002114      0.373835      0.016751
O	     -0.00155      6.86557     -4.07241        -0.003626     -0.152018     -0.001272
