# total energy = -159.71398245 eV
 
CRYSTAL
PRIMVEC
5.997784 0.006812 0.019996 
1.150262 7.633369 -0.010810 
1.768782 2.439487 7.232624 
PRIMCOORD
27 1
Sc	      2.94467      3.33937      2.45485        -0.045247     -0.014144     -0.152803
Mn	      5.98568      3.39433      2.39665        -0.110498      0.063902     -0.717841
V	      6.26271      4.94512      7.13714         1.648599     -0.054095     -0.226328
Cr	      4.56693      4.20633      4.88271        -0.437002      0.630123      0.857434
Fe	      4.51999      7.61409      7.19864         0.368015     -0.340547      0.268955
Co	      4.32424      9.24607      4.83791        -0.064332     -0.416100      0.134650
Cu	      2.90105      6.70816      4.77409        -0.336766     -0.402519     -0.170464
Cu	      7.14878      6.10696      2.34191        -0.016824      0.651532     -0.160252
Ni	      7.31982      9.20007      4.83320         0.082799     -0.015637      0.512690
O	      5.73151      6.77273      1.18017         0.372477     -0.145607      0.410465
O	      5.74940      8.49296      5.93980        -1.144108      0.772711     -1.285694
O	      2.99694      8.32827      5.94991         0.715264      0.009337     -1.078203
O	      7.38027      7.50189      3.67602         0.477212     -0.830119      0.281130
O	      4.31265      7.67171      3.75996        -0.440145      0.852065      1.231489
O	      2.65355      6.68751      1.19911        -1.092150     -0.860135      0.388753
O	      7.48479      5.79755      6.13074        -0.215951     -0.302893      0.033495
O	      4.71957      5.76387      6.15866        -0.250954     -0.243379     -0.125492
O	      3.14940      4.99764      3.74994         0.767019      0.017844      1.118866
O	      5.99010      4.91098      3.54677        -0.144892     -0.574486     -0.249160
O	      4.27787      4.18080      1.04072        -0.271997     -0.392553      0.167173
O	      1.40986      4.20062      1.28182         0.223502      0.756344      0.779346
O	      3.20601      3.22370      5.92684         1.255971     -0.250219     -1.656308
O	      6.11542      3.46105      6.06164        -1.114778      0.342985     -1.047790
O	      4.61733      2.57034      3.66284        -0.187039      0.421074      0.770500
O	      1.64419      2.38794      3.70323         0.232313     -0.551297      0.849211
O	      5.79768      1.91058      1.14193        -1.105830      0.668831     -0.327081
O	      3.11391      1.77159      1.13959         0.835344      0.206981     -0.606742
