# total energy = -163.47468651 eV
 
CRYSTAL
PRIMVEC
5.963750 -0.030921 0.033160 
1.416656 7.580117 -0.027528 
1.612301 2.447431 7.232276 
PRIMCOORD
27 1
Sc	      5.95493      5.05150      0.09597        -0.068707      0.732419      0.108463
Mn	      3.00900      8.36769      2.40423         0.068313      0.094580      0.263340
V	      4.35769      4.05843      4.74853        -1.380276     -1.134575     -0.957690
Cr	      6.10702      1.65207      4.88341         1.502709      0.981974      1.010189
Fe	      5.95517      6.65752      4.83442         0.185545      0.202635     -0.350882
Co	      1.45489      2.56175      0.03294        -0.034832      0.244997      0.841532
Co	      4.45997      5.82887      2.41121        -0.671667     -0.446094      0.078500
Cu	      4.40951      2.48693      0.06198        -0.267747     -0.076449     -0.084648
Ni	      4.55320      0.80604      2.39736         0.041955      0.077861     -0.191643
O	      6.04046      8.30346      5.91515         1.739988     -0.678404     -1.292709
O	      2.92879      8.46683      6.00252        -1.398292      1.050526     -1.537283
O	      7.49037      7.58293      3.64935        -0.498364      1.416578      0.026539
O	      4.47392      7.46695      3.50735         0.515200     -0.453779     -0.959612
O	      3.06664      6.73389      1.38874         1.259355     -0.248274      0.812698
O	      5.81976      6.66702      1.32532        -1.339306     -0.284654      1.155763
O	      7.34952      5.76085      6.04662        -0.335013     -0.006551      1.151146
O	      4.47934      5.74317      5.82694         0.103638     -0.748289      0.798289
O	      3.18980      4.93096      3.61258         1.624181      0.564570     -0.459199
O	      5.81221      5.06659      3.61822        -1.301607      1.056067      0.229415
O	      4.41492      4.20113      1.20646         0.338421      0.186307      0.195503
O	      1.45755      4.20828      1.13477        -0.042279     -2.386354     -1.434287
O	      3.13439      3.43095      5.88087         0.793923      1.479402      0.390943
O	      5.87747      3.41618      5.88873        -0.174447     -0.525151     -0.491323
O	      4.63048      2.54569      3.74874         0.701636     -0.302141      0.670172
O	      1.53777      2.33258      3.58736        -1.359546     -1.318939      0.643356
O	      6.17821      1.47565      1.32882         0.516443      0.519480     -0.408918
O	      3.00769      1.63083      1.26611        -0.519222      0.002257     -0.207653
