# total energy = -164.62246417 eV
 
CRYSTAL
PRIMVEC
6.060911 -0.101877 0.102287 
1.257570 7.594189 -0.103387 
1.746968 2.222776 7.274121 
PRIMCOORD
27 1
Sc	      6.22134      1.45029      4.79404         0.647113     -0.431231     -0.000927
Ti	      2.89830      0.08416      0.06656        -1.015977      1.149707     -0.827693
V	      1.46608      5.73845      2.30952         1.787645     -2.626184      0.210683
Cr	      5.97203      6.43373      4.89468        -1.938248     -1.092649      1.763337
Fe	      4.43265      5.70141      2.43795        -0.890235     -0.877462      0.547176
Co	      7.76568      2.16936      7.37248         1.095832      1.628475      0.111957
Cu	      7.60560      7.14671      7.23982         0.321798     -0.862943      0.143494
Cu	      1.61180      4.05899      4.79503         0.579351     -0.406082      0.039848
Ni	      4.61013      0.74517      2.50633        -0.513894      1.211565      0.281108
O	      6.15045      8.07884      6.14373         1.100618     -1.004432     -0.246253
O	      2.89710      8.31929      6.08797        -1.017273      0.355245      0.972494
O	      7.39077      7.26880      3.53112        -1.456265     -0.472924      0.103000
O	      4.57122      7.26125      3.67585         1.612709     -0.663312     -0.354567
O	      2.98950      6.62616      1.24508        -0.300210     -0.365502      0.673579
O	      5.94469      6.62179      1.21816         0.076732      0.148886      0.471073
O	      7.53925      5.57097      5.93500        -1.234979      0.495208     -1.093417
O	      4.62498      5.59530      5.99365         1.781766      1.150719     -1.465452
O	      2.81351      4.95998      3.43690        -1.553576      0.925944     -1.259384
O	      6.01008      4.96256      3.52295         0.903623      1.344562     -0.242025
O	      4.50995      4.16652      1.23565         0.935557      1.256619     -0.602516
O	      1.29430      4.38326      1.12762        -0.803386      2.306174      0.700798
O	      3.27506      2.93553      6.29332        -0.888947     -0.640213      0.543005
O	      6.16403      2.97736      6.23626         0.819015     -0.337103      0.083247
O	      4.70433      2.31015      3.76102        -0.038290     -0.780064     -0.846437
O	      1.66688      2.43872      3.72021         0.163216      1.405136      0.678388
O	      6.09373      1.37491      1.22047        -0.820550     -1.963528     -0.793234
O	      3.08875      1.44820      1.25982         0.646857     -0.854610      0.408718
