# total energy = -163.74889249 eV
 
CRYSTAL
PRIMVEC
6.038852 0.066130 -0.087820 
1.563124 7.669374 -0.107406 
1.482051 2.493011 7.230267 
PRIMCOORD
27 1
Sc	      2.90278      0.05090      0.01276        -0.135256     -0.471429     -0.355448
Ti	      6.09115      5.00174     -0.14047         0.602981      0.908867     -0.396049
V	      7.75292      9.23637      4.62767         1.222735     -1.977725      0.435181
Cr	      4.47010      4.25958      4.73607        -1.459097      1.659362     -1.141728
Fe	      5.97757      8.49302      2.32467         1.283983     -0.406062      0.374349
Co	      6.05817      3.51134      2.32441         0.249023      0.885176      0.875951
Cu	      0.06586      0.11423      0.02198         0.553726     -0.451468      0.049347
Cu	      2.97099      3.44608      2.32834        -0.521286      0.583513     -0.151992
Ni	      6.00128      5.14360      7.11036        -0.061276      0.794205     -0.547927
O	      3.07222      1.81826      1.21373         1.101403      0.544538      0.541652
O	      5.86407      1.92509      1.31329        -0.859854      0.228100     -0.076460
O	      1.45924      4.29110      1.13868        -0.158168     -0.947263      0.960043
O	      4.68832      4.45482      0.97338         0.248245     -1.095242      0.844289
O	      6.19066      6.96415      0.95989         0.513787      1.103903     -0.549683
O	      3.00339      6.89174      0.99722        -1.335601      0.459724     -0.352017
O	      1.26255      2.41950      3.77171        -0.565861      0.747675     -1.061707
O	      4.53887      2.52533      3.63857        -0.172277      0.644890     -0.833239
O	      5.92658      4.92666      3.50222        -0.639972     -1.978444     -0.524438
O	      3.04916      4.95767      3.51215         1.400956     -1.880369      0.434646
O	      4.63941      7.69167      3.39400        -0.024339     -0.175684     -0.231557
O	      7.52895      7.84131      3.52053        -1.135037      1.209388     -0.089561
O	      5.96645      3.32549      5.90587        -0.475656      0.206752      0.414314
O	      3.01367      3.38393      5.98985         0.323669      0.094058      0.347132
O	      4.56265      5.86454      5.87565         0.542462     -1.288675      0.097752
O	      7.54483      6.05506      5.98938        -0.459653     -0.533922      0.430707
O	      2.90699      8.42257      5.82231        -1.085577      0.928866      0.126887
O	      6.31430      8.56863      5.86967         1.045941      0.207264      0.379555
