# total energy = -164.18353723 eV
 
CRYSTAL
PRIMVEC
6.035966 -0.023309 0.033402 
1.352655 7.632561 -0.079411 
1.686161 2.288774 7.246932 
PRIMCOORD
27 1
Sc	      6.19586      1.49242      4.74173         0.136848     -0.350333      0.156736
Ti	      4.43497      2.46899      7.16841        -0.792170      0.337323     -1.501974
V	      1.60577      5.76945      2.38359         1.911636     -3.539237     -0.073080
Cr	      6.05278      6.56636      4.89491        -2.472282     -1.051949      1.873839
Fe	      4.51285      5.71876      2.40105        -0.785709     -0.866722      0.781780
Co	      5.93257      0.02657      0.04956         0.694886      0.809317     -0.459018
Cu	      4.57130      0.75160      2.44003        -0.540735      1.295756      0.305014
Ni	      7.61239      7.31283      7.21521         0.263524     -1.169888      0.067970
Ni	      1.60665      4.06220      4.81588         0.655275     -0.165796      0.135090
O	      6.10030      8.27609      6.06933         1.157657     -0.926531     -0.410383
O	      2.95534      8.45191      6.11974        -0.973721      0.774341      1.093020
O	      7.61956      7.27525      3.66041        -1.679585     -0.227838      0.331956
O	      4.75218      7.42995      3.54076         1.126619     -0.703232     -0.325786
O	      3.04329      6.72744      1.23633        -0.249936     -0.277215      0.441487
O	      6.03878      6.75652      1.30463         0.069986     -0.178723      0.139555
O	      7.51641      5.70517      5.98550        -0.906078      0.881471     -0.901773
O	      4.61094      5.78878      5.91595         2.123866      1.187264     -1.546818
O	      3.01214      4.98496      3.48567        -1.575668      1.323011     -1.649032
O	      6.13687      5.01862      3.58999         1.105449      1.524053     -0.396838
O	      4.56210      4.24330      1.24563         0.799273      1.349465     -0.368436
O	      1.42598      4.42056      1.22293        -0.484080      2.629708      1.281519
O	      3.05600      3.12657      6.11072        -0.765150     -0.465294      0.988669
O	      6.01367      3.07407      6.13743         0.552549     -0.546440      0.402494
O	      4.62823      2.24951      3.56552         0.232523     -0.938677     -0.721712
O	      1.57964      2.41620      3.65084         0.249255      1.041767      0.234772
O	      5.89393      1.41150      1.25218        -0.474529     -1.349790     -0.636031
O	      2.86521      1.58183      1.04312         0.620297     -0.395813      0.756979
