# total energy = -167.40902277 eV
 
CRYSTAL
PRIMVEC
5.918674 0.041064 -0.071262 
1.396081 7.695570 0.006282 
1.570344 2.586472 7.194595 
PRIMCOORD
27 1
Sc	      4.37538      2.59538      0.03446        -0.319126     -0.224913      0.357344
Mn	      3.00097     10.23948      7.17740        -0.304812      0.685770     -0.820205
Mn	      1.61892      4.27336      4.76264         0.535661      0.226114      0.299995
V	      3.01486      8.56018      2.50483         2.081740      0.969856      2.939150
Cr	      2.84935      5.13212      0.02259        -0.045810     -1.258033     -0.902599
Fe	      5.97283      6.95883      4.74337        -0.525840      0.596005     -0.020436
Co	      5.88183      3.49429      2.38310        -2.156652     -1.364731      1.415057
Cu	      5.96105     10.25600      7.08557         0.310841     -0.197025     -0.518012
Ni	      7.29616      6.01934      2.35800        -0.127855      0.196339      0.059878
O	      5.83655      8.52340      5.96728        -1.137594     -0.237508      1.235641
O	      3.03754      8.66602      6.15008         1.142768     -0.228145      1.332830
O	      7.37772      7.78033      3.52722         0.563724     -0.720331     -1.439328
O	      4.30186      7.75264      3.47330        -1.743871      1.104923     -1.365040
O	      2.73245      6.86523      1.20732         0.002004      0.370003     -0.233421
O	      5.94072      6.99903      0.98157         0.325510      0.147356     -0.401048
O	      7.34197      6.00828      5.86853        -0.625297     -0.915497     -1.236330
O	      4.53226      6.12380      6.00513         1.097452      1.434169      0.443574
O	      2.85554      5.11132      3.64707        -1.152927     -0.150737     -0.020668
O	      5.89467      5.23784      3.58498         2.050195     -0.419800      0.285320
O	      4.34571      4.30936      1.13599        -0.257032      0.206294     -0.337344
O	      1.36360      4.27299      1.23424         0.152960      1.152960      0.621818
O	      3.01155      3.35623      6.05710        -1.034449     -0.401738      0.317544
O	      6.27072      3.46602      5.92240         0.289629     -0.031737      0.855514
O	      4.64433      2.70962      3.40869         2.357377      1.533280     -1.959311
O	      1.51883      2.52446      3.49607        -0.752847     -0.553621     -1.406970
O	      6.01741      1.64114      1.12913         0.318456     -0.421950      0.176450
O	      2.89772      1.59760      1.16951        -1.044207     -1.497303      0.320595
