# total energy = -165.24393819 eV
 
CRYSTAL
PRIMVEC
5.942247 -0.027314 0.030720 
1.326246 7.690503 0.051271 
1.657410 2.430928 7.297398 
PRIMCOORD
27 1
Sc	      7.48197      4.15167      4.97430         1.147551      0.277105      0.470575
Ti	      4.49061      2.64327      7.27033        -1.411986      1.393508     -0.371206
V	      1.55186      5.84123      2.40303         2.532194     -2.372550     -0.022519
Cr	      5.90396      6.77285      4.95783        -1.894765     -1.122716      1.476958
Fe	      4.45084      5.81961      2.50582        -1.063845     -0.802486      0.833579
Co	      5.88409      0.02390      0.03806         0.897589      1.371612      0.205186
Cu	      7.49761      7.44849      7.33205         0.058973     -0.981002      0.151158
Cu	      6.00352      1.64217      4.83419         0.620866      0.361876     -0.503321
Ni	      4.53110      0.81662      2.47313        -0.618220      1.101231      0.126044
O	      5.95228      8.57443      5.97504         1.160240     -0.778996     -0.338559
O	      2.69701      8.67200      6.14565        -0.707094      0.257128      0.536293
O	      7.33061      7.34923      3.51911        -1.436406      0.112441      0.264132
O	      4.49745      7.45363      3.67158         1.884388     -0.719801     -0.225822
O	      2.97957      6.70462      1.22228        -0.526716     -0.329383      0.741820
O	      5.88221      6.72334      1.25169         0.137068     -0.377459      0.077044
O	      7.43097      5.93920      6.05572        -1.226057      1.539028     -0.470392
O	      4.55008      5.98067      6.09089         1.794912      1.139079     -1.508083
O	      2.93891      5.02861      3.59144        -1.578617      1.259810     -1.707795
O	      6.01207      5.11097      3.72206         0.871562      1.300931     -0.448585
O	      4.52370      4.27773      1.31439         1.108955      1.027159     -0.738504
O	      1.48748      4.35081      1.38796        -1.124020      2.500913      0.639816
O	      3.07151      3.31690      6.20770        -0.844021     -0.883559      0.756934
O	      5.94141      3.39988      6.28441         0.364716     -0.731025      0.198649
O	      4.65856      2.38491      3.72411         0.764015     -1.012037     -0.010362
O	      1.46502      2.46078      3.79924        -1.159972     -0.546853      0.751717
O	      5.93941      1.45822      1.16935        -0.567497     -1.810391     -0.688697
O	      2.94611      1.51161      1.23793         0.816186     -1.173564     -0.196060
