# total energy = -171.56636340 eV
 
CRYSTAL
PRIMVEC
5.994733 -0.065515 0.108810 
1.294854 7.646193 0.028984 
1.712552 2.364005 7.284993 
PRIMCOORD
27 1
Sc	      4.46663      2.62627      0.22625        -0.297682     -0.312430      0.196809
Ti	      4.38216      7.55117      0.14394         0.465439     -0.136978      0.228740
Mn	      1.47257      5.82806      2.41216         0.409659      0.292985      1.007913
V	      5.94291      6.66683      4.94970         0.003685      0.815378      1.045406
Cr	      3.11761      1.56427      4.80167         0.605827     -0.492097     -1.522923
Fe	      1.63897      4.09954      4.83710        -0.479967      0.072727     -0.204791
Co	      1.32081      7.63533      0.03564        -0.468880      0.010817      0.535085
Cu	      1.50702      2.67175      0.09853         0.424940      0.548535      0.691029
Ni	      4.39381      5.77338      2.53622        -0.018889     -0.591034     -0.086139
O	      3.01108      1.46267      1.16628        -0.617552      0.115937     -1.278671
O	      6.07940      1.67562      1.19307         0.528809     -1.041329     -1.810620
O	      1.42549      4.30126      1.28029         0.071757     -0.320411     -0.665095
O	      4.43656      4.17710      1.36625         0.002958      1.575947      1.156536
O	      5.69923      6.72952      1.19696         0.777765      0.114693     -0.026803
O	      2.88670      6.76637      1.26056        -1.074733     -0.497156     -0.072750
O	      1.69348      2.39875      3.79894         1.039348     -0.109016      1.076385
O	      4.46671      2.29351      3.78384        -1.369422     -0.623631      1.054802
O	      6.05767      4.99775      3.77737         0.825642      1.544376     -0.218885
O	      2.95088      4.98104      3.73029        -1.394107      0.668848     -1.305709
O	      4.52568      7.45584      3.85388         1.239837     -0.476093      1.025359
O	      7.27795      7.32006      3.74847        -1.107854     -1.333376      0.191214
O	      6.10988      3.15585      6.21296         1.194800     -0.065983      0.659751
O	      3.16581      3.21079      6.03139        -0.810097     -0.481399      0.570968
O	      4.69247      5.80610      6.13819         0.718976      0.129840     -0.180310
O	      7.42934      5.76149      6.03947        -0.763493     -0.530179     -0.715353
O	      3.12555      8.44064      6.03785         0.673975      1.719732      0.042006
O	      5.87881      8.37910      6.03228        -0.580742     -0.598706     -1.393953
