# total energy = -169.49192076 eV
 
CRYSTAL
PRIMVEC
6.015050 -0.073930 0.085301 
1.503888 7.639046 -0.023334 
1.545721 2.483026 7.266624 
PRIMCOORD
27 1
Sc	      7.57513      9.19407      4.89674         0.666183     -1.023367      0.282471
Ti	      6.13741      5.12847      0.18303         0.961951      0.200644     -0.378005
V	      1.58262      4.31657      4.85855         3.025400      1.720266      0.121714
Cr	      6.00187      8.28814      2.51696        -0.732627     -1.838280      1.662420
Fe	      5.97515      5.01081      7.27301         0.497296      0.275996      0.483001
Fe	      2.94857      3.38804      2.38429        -0.308938      0.645265     -0.386278
Co	      6.02475      3.28642      2.46046         0.252673      0.064289     -0.152666
Cu	      4.39689      7.58851      0.03523        -0.830592     -0.734465      0.477676
Ni	      4.49374      4.20815      4.87918        -0.467764      0.859962     -0.087961
O	      3.09038      1.64668      1.32069         1.029839     -0.383407     -0.622818
O	      5.73430      1.59068      1.31887        -0.616942      1.485297      0.799793
O	      1.47601      4.19500      1.18353        -1.496013     -0.818618      1.216019
O	      4.52064      4.15850      1.24631         1.238837     -1.432546      0.832003
O	      6.11397      6.58832      1.34031        -0.761382      0.813648     -0.501931
O	      3.06279      6.80642      1.12036         0.517922      0.323323     -0.710806
O	      1.56125      2.59731      3.64967        -1.460404      1.624166     -0.535317
O	      4.48354      2.40095      3.63862         1.166611      0.829143     -1.273709
O	      6.19480      4.83828      3.85498        -0.228128     -1.817552     -0.319241
O	      2.99745      4.97805      3.63282        -1.329707     -1.719286      1.537472
O	      4.64704      7.62417      3.54332         1.550816      0.883152     -1.481370
O	      7.41683      7.65554      3.54992        -1.088514      0.563068     -1.036059
O	      5.98101      3.33109      6.09296        -0.369629      0.425594     -0.484700
O	      2.81475      3.42921      5.90544        -0.301031      0.772228     -0.836077
O	      4.60663      5.79723      6.11623         0.441229     -0.713275      0.066230
O	      7.51267      5.80574      6.19827        -1.130881     -1.504881     -0.479447
O	      2.90567      8.34189      6.08912        -0.860304     -0.236897      0.809893
O	      6.23458      8.36317      6.23109         0.634097      0.736532      0.997692
