# total energy = -102.41976997 eV
 
CRYSTAL
PRIMVEC
0.000044 2.096888 2.096856 
4.282765 -4.273496 4.273452 
4.161949 4.212862 -4.212738 
PRIMCOORD
16 1
Li	      4.30915      4.06205     -4.06108         0.010903      0.011701     -0.011842
Li	      2.22946      1.94466      0.15378         0.030403     -0.000991      0.000015
Li	      4.09297      2.21846     -2.21781        -0.027686     -0.030949      0.031505
Li	      4.03601      0.00271     -0.00076         0.008725      0.019801     -0.021547
Ti	      6.12786      2.04506      0.05294        -0.672847     -0.019431      0.018958
Ti	      4.40227     -2.16076      2.16077         0.333978     -0.024125      0.024919
Ni	      1.97653      0.09811      1.99992         0.080584     -0.098894      0.097542
Ni	      6.48148     -0.03414      2.13126        -0.055656      0.023242     -0.023361
O	      4.35013      2.06033      0.03767         0.658014     -0.013672      0.012804
O	      4.23432     -0.15254      2.24960        -0.006955     -0.075153      0.076219
O	      6.35237      0.04454     -0.04375        -0.010042      0.127360     -0.127735
O	      4.20201     -2.01969      4.11692        -0.020818      0.104171     -0.103741
O	      6.25497     -2.09935      2.09952        -0.352440     -0.077548      0.079047
O	      4.15368      4.18536     -2.08773         0.020932      0.014906     -0.014301
O	      2.13613     -0.03787      0.03899        -0.009844      0.119282     -0.119177
O	      6.38796      1.95977     -1.95922         0.012750     -0.079701      0.080696
