# total energy = -103.71529352 eV
 
CRYSTAL
PRIMVEC
-2.098263 4.223223 -2.099542 
2.053050 4.177310 2.054895 
6.218190 -0.023428 -2.068386 
PRIMCOORD
16 1
Li	      2.08656      4.17565      2.01855         0.018017      0.006471     -0.009829
Li	      2.04551      2.09025      0.00671        -0.014050     -0.004761      0.014451
Li	      4.13172      4.17361     -0.02219        -0.006117      0.006777      0.000364
Li	      6.15721      4.17944     -2.05466        -0.007438     -0.007292      0.007482
Ti	      1.94011      6.28899      0.06893        -0.135963      0.018699      0.150810
Ti	      2.09583      4.20110     -2.14027         0.041366     -0.007898     -0.055503
Ni	      4.12061      2.08761     -2.06901        -0.022141      0.004185      0.022033
Ni	      4.17043      6.28967     -2.16460         0.047452     -0.003957     -0.042429
O	      2.05474      6.20432     -2.07000        -0.074419     -0.084561      0.117330
O	      2.06156      4.34773     -0.12534         0.003407      0.103088     -0.062925
O	      2.02249      2.19754     -2.10132        -0.113951      0.081446      0.073507
O	      4.03242      4.17964     -2.08548        -0.157193      0.018063     -0.015864
O	      0.02822      6.31236     -0.02559         0.284495     -0.013781     -0.083200
O	      0.07842      4.05401     -2.11276         0.073613     -0.111673      0.016011
O	      6.19594      4.17356      0.07649        -0.003466     -0.003303      0.144400
O	     -0.01634      2.09102     -0.07490         0.066388     -0.001504     -0.276639
