# total energy = -103.14514988 eV
 
CRYSTAL
PRIMVEC
4.074667 0.000924 -0.000064 
0.001114 4.369080 -4.126806 
0.001400 6.485955 1.993759 
PRIMCOORD
16 1
Li	      4.07358      0.08388     -0.05376         0.000705      0.013741     -0.004677
Li	      2.03761      2.09270     -0.04803        -0.000657     -0.000578     -0.009492
Li	      4.07416      4.42783     -0.03025         0.000851     -0.027780     -0.002461
Li	      4.07409      8.52368      0.04722        -0.001299      0.002756      0.031000
Ti	      2.02354      4.16451     -2.05314        -0.003351     -0.302037      0.041143
Ti	      4.07422      6.63314     -2.18941        -0.002379      0.203361     -0.362099
Ni	      2.03836      6.51661      0.03683         0.000201      0.085818      0.077662
Ni	      2.03951      8.75265     -2.19047        -0.000511     -0.064935     -0.005742
O	      4.07459      2.12910      0.10918        -0.000357      0.012416      0.371762
O	      2.03940      4.42287     -0.14818        -0.000286     -0.091540     -0.255014
O	      0.00715      4.46405     -2.08093         0.009199      0.023861     -0.002824
O	      2.03883      6.49476     -2.07614         0.002108     -0.087074     -0.093114
O	      4.07567      6.54169     -0.14051         0.001274     -0.006834     -0.068026
O	      2.03615      2.30920     -2.06621        -0.003292      0.324757      0.076360
O	      0.00229      8.52665     -2.12677        -0.001069     -0.227792     -0.011383
O	      2.03977      4.29756     -4.02324        -0.001137      0.141860      0.216905
