# total energy = -102.68604180 eV
 
CRYSTAL
PRIMVEC
-0.000011 2.129947 2.130275 
4.161934 -4.240457 4.241098 
4.161699 4.240308 -4.240981 
PRIMCOORD
16 1
Li	      4.16185      6.18320     -1.92818        -0.000945      0.026214     -0.025640
Li	      2.08020      2.12244      0.00137        -0.000178     -0.000892     -0.000991
Li	      4.16139      4.43037     -0.17631         0.000011     -0.022828      0.025676
Li	      6.24158      2.12079      0.00183         0.000494      0.001860     -0.002963
Ti	      4.16065      2.21305      2.03805         0.001287      0.220256     -0.225722
Ti	      4.16092     -0.08508      4.33365        -0.006244     -0.224272      0.219275
Ni	      1.98280      0.00197      2.12341        -0.042697     -0.001321      0.000136
Ni	      6.33924      0.00193      2.12348         0.042654      0.001618     -0.002398
O	      4.16070      1.99107      0.13358         0.000181     -0.165479      0.169438
O	      4.16070      0.00465      2.12619         0.001332     -0.001703      0.001770
O	      6.07256      2.08369      2.17277        -0.157450      0.086676     -0.087781
O	      4.16086     -1.98907      4.11157         0.000668      0.174273     -0.167253
O	      6.07261      0.05092      4.20501        -0.155940     -0.092395      0.091398
O	      4.16091      4.24178     -2.11744        -0.000156      0.001488      0.003707
O	      2.24875      2.08371      2.17271         0.156836      0.087692     -0.088259
O	      2.24881      0.05073      4.20517         0.160146     -0.091187      0.089608
