# total energy = -91.11888108 eV
 
CRYSTAL
PRIMVEC
-0.001672 2.090905 2.094622 
6.098970 0.042210 -2.141015 
-1.962794 6.286898 -4.200160 
PRIMCOORD
16 1
Li	      2.18062      2.13464     -0.05397         0.011808      0.025008     -0.009809
Li	      3.93793      2.10225     -2.09847        -0.012796     -0.022225      0.010885
Li	      2.14941      4.19884     -2.11391        -0.007865     -0.003329      0.003526
Li	      2.00626      6.32451     -4.23926         0.007591      0.004999     -0.008219
Mn	      6.03890      2.13301     -0.04323        -0.089147      0.054896     -0.052257
Mn	      0.07761      4.19470     -0.01537         0.089713     -0.056097      0.052616
Ni	      4.02249      4.19870     -4.21562        -0.091934      0.064799     -0.042166
Ni	      0.13292      6.32483     -2.13780         0.091434     -0.065526      0.041436
O	     -0.01003      4.15490     -2.07040         0.049934     -0.032165      0.036266
O	      0.00937      2.09726     -0.00601         0.001442      0.000794      0.000473
O	      4.16534      6.36894     -4.28334        -0.052026      0.027433     -0.030764
O	      4.22029      4.28935     -2.21690         0.027946     -0.088458      0.104174
O	     -0.06488      6.23412     -4.13648        -0.027796      0.089171     -0.107164
O	      4.19974      2.13929     -0.05237         0.059519      0.001721      0.010261
O	      2.07688      6.30710     -2.12965         0.001232      0.000447      0.000199
O	      1.91850      2.09743     -2.10035        -0.059053     -0.001466     -0.009458
