# total energy = -103.49553992 eV
 
CRYSTAL
PRIMVEC
-2.085988 4.218435 -2.084744 
2.086130 4.218403 2.084628 
6.229545 0.000091 -2.056229 
PRIMCOORD
16 1
Li	      2.14309      4.22042      2.02569         0.029501      0.000157     -0.031497
Li	      2.08092      2.11267      0.00873        -0.008436     -0.002041     -0.001119
Li	      4.09890      4.22044      0.07359        -0.030823     -0.000127      0.033690
Li	      2.08113      6.32893      0.00888        -0.006988      0.003067      0.000247
Ti	      6.18847      4.22122     -2.01723         0.077601     -0.004079     -0.064048
Ti	      2.02755      4.22102     -2.02643        -0.156734     -0.000657      0.139091
Ni	      4.15588      2.11293     -2.07018         0.002976     -0.014680      0.000178
Ni	      4.15597      6.32907     -2.07021         0.001305      0.011594     -0.002150
O	      2.11543      6.16648     -2.11365        -0.107921     -0.107680      0.109322
O	      1.98558      4.22095     -0.09321        -0.049437      0.001897     -0.143268
O	      2.11552      2.27558     -2.11365        -0.109273      0.106936      0.108108
O	      4.17271      4.22077     -2.06697         0.020648      0.003521      0.007296
O	      6.20487      6.17617     -2.03495         0.103289     -0.116392     -0.097845
O	      0.09430      4.22093     -1.98835         0.140089      0.001120      0.071146
O	      6.24031      4.22084     -0.00131        -0.008967      0.000518     -0.032052
O	      6.20471      2.26596     -2.03493         0.103169      0.116845     -0.097099
