# total energy = -101.89612387 eV
 
CRYSTAL
PRIMVEC
4.226509 0.000146 0.000154 
0.000154 4.191947 -4.192274 
-0.000295 6.156683 1.963234 
PRIMCOORD
16 1
Li	      4.18511      6.12190      1.93111         0.015660      0.003956     -0.007388
Li	      2.15831      2.06239     -0.03370        -0.008086      0.003041      0.000640
Li	      4.18645      4.16246     -0.03541         0.012669     -0.003058      0.007404
Li	      2.15828      4.15996     -2.12905        -0.007690     -0.000498     -0.000534
Ti	      0.15566      2.18758     -2.00657         0.204070      0.055456      0.065942
Ti	      0.15539      6.13222     -2.25404         0.204352     -0.056202     -0.064621
Ni	      2.10996      6.10214     -0.00967        -0.012220      0.070837     -0.084512
Ni	      2.11010      8.37470     -2.28724        -0.012954     -0.073460      0.083731
O	      4.21255      2.06397     -0.03356         0.015475     -0.000341     -0.002367
O	      2.10435      4.14298     -0.05367        -0.002851     -0.186979     -0.180941
O	      4.21464      4.16035     -2.12980         0.001177     -0.002964     -0.000964
O	      2.01293      6.22084     -2.16521        -0.243300     -0.074012     -0.078340
O	      4.18205      6.33961     -0.24842         0.041266      0.050623     -0.054840
O	      2.01318      2.09935     -2.09456        -0.245119      0.072316      0.077862
O	      4.18222      8.13760     -2.04835         0.040393     -0.048589      0.057579
O	      2.10417      6.14163      1.94919        -0.002843      0.189873      0.181349
