# total energy = -103.22054968 eV
 
CRYSTAL
PRIMVEC
-0.000016 2.092329 2.092183 
8.360615 -2.127509 2.127254 
0.001491 4.259247 -4.258992 
PRIMCOORD
16 1
Li	      0.13685      0.01279     -0.00659        -0.003249      0.019983     -0.022419
Li	      2.21302      1.98397      0.11051         0.008492      0.011788     -0.011802
Li	      4.05976      2.25481     -2.25254        -0.007806     -0.012566      0.013900
Li	      6.13464     -0.03010      2.12736         0.004205     -0.022311      0.021204
Ti	      0.12145      2.06733     -2.06602         0.324366     -0.127871      0.128753
Ti	      6.15227      2.17024     -0.07659        -0.334883      0.127119     -0.126792
Ni	      2.13655      4.30251     -2.20772        -0.039855     -0.064726      0.063610
Ni	      4.13620     -0.06365      0.06584         0.044329      0.064467     -0.064992
O	      4.31901      2.07880      0.01500         0.384007      0.075694     -0.076498
O	      4.18164      0.00644      2.08807         0.103592     -0.109037      0.108408
O	      6.34017      0.11714     -0.11561         0.082694      0.052187     -0.052438
O	      6.34314      2.01606     -2.01461        -0.020303     -0.142960      0.144412
O	      8.29088      0.09420      1.99945         0.021991      0.142238     -0.141430
O	      1.95435      2.15927     -2.15711        -0.376847     -0.075086      0.074834
O	      8.29385      1.99319      0.10045        -0.083485     -0.050904      0.051980
O	      2.08964     -0.02686      0.02903        -0.107250      0.111989     -0.110730
