# total energy = -103.19625727 eV
 
CRYSTAL
PRIMVEC
-0.000011 2.087985 2.087743 
4.221165 -4.198689 4.198240 
4.274617 4.225503 -4.225145 
PRIMCOORD
16 1
Li	      0.15054      0.10453     -0.10387         0.046495     -0.011020      0.011529
Li	      1.93409      2.07096      0.01668        -0.001530     -0.014836      0.015524
Li	      4.45681      2.14819     -2.14633         0.005574      0.015734     -0.016561
Li	      1.96616     -0.11033      2.19940        -0.050036      0.012481     -0.013553
Ti	      4.02998      2.11468      2.06092        -0.634620      0.097225     -0.096173
Ti	      6.58218     -0.00624      2.09469         0.635901     -0.093952      0.094229
Ni	      6.45077      2.16132     -0.07251        -0.057217     -0.054151      0.053592
Ni	      4.16136     -2.14049      2.14089         0.059590      0.051984     -0.052011
O	      4.30469      1.97795      0.10988        -0.082005     -0.115564      0.116479
O	      4.30255      0.09029      1.99794         0.017454      0.107827     -0.108185
O	      6.30929     -0.06959      0.06990        -0.014051     -0.109708      0.110384
O	      4.20924     -2.06240      4.15072         0.103048     -0.113687      0.113776
O	      6.30760     -1.95735      1.95795         0.084941      0.113314     -0.113564
O	      4.15175      4.19886     -2.10993        -0.607212     -0.008080      0.007717
O	      2.23933      0.02054     -0.02052         0.594682      0.009504     -0.008767
O	      6.40307      2.08330     -2.08234        -0.101014      0.112929     -0.114415
