# total energy = -103.89454543 eV
 
CRYSTAL
PRIMVEC
-2.055008 4.259882 -2.059695 
2.071648 4.276070 2.073173 
6.187735 0.009898 -2.064288 
PRIMCOORD
16 1
Li	      2.11625      4.30079      2.03286         0.003312     -0.018461     -0.019334
Li	      2.13653      2.14798     -0.05777         0.006862     -0.010517     -0.018578
Li	      4.06316      4.26785      0.07437        -0.007912      0.010103      0.018224
Li	      4.08312      2.11481     -2.01617        -0.005038      0.019610      0.018324
Ti	      0.04811      4.26339     -0.04015         0.084283     -0.010057     -0.090568
Ti	      4.09645      6.41229     -2.00319        -0.085995      0.008452      0.089160
Ni	      2.04099      6.40536      0.04139        -0.008359      0.008513      0.032281
Ni	      2.10361      4.27016     -2.08459         0.010466     -0.007752     -0.031923
O	      2.15910      6.34226     -2.03923         0.159130      0.099003     -0.103153
O	      1.98539      4.33328     -0.00388        -0.156033     -0.099814      0.102815
O	      4.12306      6.47313     -0.07130         0.109942     -0.099434     -0.159602
O	      4.19933      4.42386     -2.07939         0.144731      0.080055     -0.002151
O	      6.13294      6.26144     -2.02807        -0.145766     -0.078110      0.002724
O	      0.02149      4.20253     -1.97198        -0.110834      0.099234      0.162587
O	      6.21845      4.13515     -0.05445         0.007157     -0.078885     -0.146616
O	      6.16886      2.29027     -1.99339        -0.005946      0.078059      0.145809
