# total energy = -103.43460314 eV
 
CRYSTAL
PRIMVEC
4.116928 0.000001 0.000001 
-0.000044 4.184842 -4.221883 
-0.000007 6.223662 2.058521 
PRIMCOORD
16 1
Li	      0.00089      4.17842     -4.20125         0.000665      0.003726     -0.024054
Li	      2.05943      1.97513      0.06057        -0.000950     -0.024438     -0.024971
Li	      0.00099      4.26144     -0.10098         0.000054      0.026124      0.025065
Li	      2.05938      6.24336     -0.06170         0.000731     -0.005708      0.024751
Ti	      0.00106      2.03434     -1.92009        -0.000268     -0.294748      0.403684
Ti	      2.05957      8.38751     -2.34286        -0.000589      0.289415     -0.397647
Ni	      2.05940      4.21809     -2.08417        -0.000643      0.047531      0.046422
Ni	      0.00090      6.20336     -2.17832         0.000005     -0.047876     -0.047542
O	      0.00097      2.03499     -0.09115        -0.000227      0.011096     -0.446193
O	      2.05944      4.20141      0.05033         0.000087     -0.006310      0.446528
O	      0.00095      4.09755     -2.09420        -0.000111     -0.132542      0.002235
O	      2.05937      6.32407     -2.16841        -0.000929      0.135129     -0.006410
O	      0.00090      6.41096     -0.10629         0.000813      0.274017      0.109255
O	      2.05938      8.35066     -0.09203         0.000208     -0.100799     -0.013360
O	      0.00088      8.29438     -2.11220         0.000206      0.100716      0.016447
O	      2.05937     10.23434     -2.09773         0.000949     -0.275335     -0.114210
