# total energy = -101.13728640 eV
 
CRYSTAL
PRIMVEC
-0.000171 2.086240 2.086117 
8.342624 -2.094897 2.094238 
0.001308 4.191396 -4.191168 
PRIMCOORD
16 1
Li	      0.17998      2.10602      2.06209        -0.027388      0.013551     -0.016028
Li	      2.03936      2.12629     -0.04092        -0.021963      0.006241     -0.009626
Li	      3.98496      4.17003      0.00074         0.025215     -0.016452      0.013143
Li	      0.15049      4.16051      0.00951        -0.012027     -0.011903      0.008310
Ti	      6.31449     -0.01787      2.09945         0.392222     -0.022662      0.022301
Ti	      6.32128      2.10687     -0.02548         0.293703      0.023525     -0.023367
Ni	      2.03580      4.16178     -2.08138        -0.039753     -0.009856      0.012182
Ni	      4.07233      2.09483      2.07104        -0.022172      0.027688     -0.023241
O	      4.36636      2.05506      0.02492         0.126954      0.101005     -0.096983
O	      4.33961      0.03170      2.04791         0.133203     -0.096004      0.098080
O	      6.26907      2.08705      2.08020         0.057077     -0.001837     -0.000078
O	      6.23129      4.18255     -0.01510         0.017406     -0.001346     -0.000671
O	      8.13095     -0.00993      2.09082        -0.413147     -0.000943      0.001613
O	      2.05847      4.25909     -0.09223         0.032976     -0.107131      0.106415
O	      8.15291      2.09351     -0.01335        -0.400589      0.005341     -0.003175
O	      2.09327      1.98105      2.18474        -0.141718      0.090785     -0.088876
