# total energy = -102.47495432 eV
 
CRYSTAL
PRIMVEC
-0.000025 2.106915 2.104280 
4.005246 -4.359225 4.356136 
4.017528 4.364999 -4.363983 
PRIMCOORD
16 1
Li	      4.04831     -2.08066      6.28550         0.005654      0.000859      0.006720
Li	      2.09021      2.13811     -0.04881        -0.008671     -0.022778      0.022587
Li	      3.97405      4.04032      0.16047        -0.017948      0.024592     -0.010099
Li	      3.97443      2.29316      1.91165        -0.013559     -0.001676      0.008514
Ti	      2.05152     -0.00795      2.14525         0.039953      0.149548     -0.129215
Ti	      6.19225     -0.01464      2.10921         0.393567     -0.028563      0.032421
Ni	      5.94448      2.12758     -0.02528         0.053925     -0.028449      0.015254
Ni	      4.02420     -2.25367      2.25257         0.041909      0.002532     -0.024932
O	      4.00513      2.11426     -0.01648        -0.160061     -0.002865      0.001957
O	      3.94216     -0.12085      2.22690        -0.139994      0.074998     -0.086873
O	      6.00302      2.00490      2.19842         0.006061     -0.100910      0.118579
O	      3.95877     -2.17262      4.27343         0.083400     -0.088938      0.106797
O	      6.03252      0.11334      4.09335         0.127573      0.087810     -0.088107
O	      3.99995      4.36233     -2.26132        -0.352483      0.006506      0.007411
O	      1.99072     -0.19132      0.19631         0.019502     -0.152409      0.108084
O	      1.94068      0.00201      4.19719        -0.078826      0.079744     -0.089099
