# total energy = -102.31494638 eV
 
CRYSTAL
PRIMVEC
4.038740 -0.001698 -0.003783 
0.002724 4.215480 -4.171916 
-0.004849 6.449157 2.210369 
PRIMCOORD
16 1
Li	      4.03460      4.43724     -4.04133        -0.002551     -0.008953     -0.028114
Li	      2.01854      2.10752      0.02060         0.000204      0.007966     -0.030247
Li	      0.00821      4.05529     -0.06265        -0.000566     -0.003582     -0.000073
Li	      4.02937      2.21990     -1.85776        -0.001441      0.010347     -0.002923
Ti	      1.83577      6.48465      0.13315        -0.287580      0.007079      0.085522
Ti	      2.19447      8.54596     -2.06522         0.275705      0.088625     -0.039886
Ni	      2.01917      4.14709     -2.01269        -0.003324     -0.003648     -0.026270
Ni	      4.03763      6.28568     -2.17253         0.008090      0.056827      0.073623
O	      4.03733      2.12897      0.04225        -0.000267      0.011270     -0.151657
O	      2.01780      4.47569      0.14027         0.001225      0.059938      0.165061
O	      0.00055      4.27011     -2.05441         0.001054     -0.116923      0.011097
O	      2.01920      6.47664     -1.88868        -0.003561      0.089330      0.081520
O	      0.01328      6.47880      0.06354         0.340161     -0.000243      0.058759
O	      2.01402      8.46546     -0.05038         0.001389     -0.157636     -0.057956
O	      4.02186      8.44588     -2.06830        -0.321228      0.073005      0.004792
O	      2.01690      6.27589      2.10290        -0.007310     -0.113404     -0.143247
