# total energy = -100.80831523 eV
 
CRYSTAL
PRIMVEC
-0.000116 -0.000176 -4.148126 
-2.085781 8.391494 -2.073825 
4.172095 0.000234 0.000114 
PRIMCOORD
16 1
Li	      0.00051      0.19445     -4.14828         0.000534     -0.024073     -0.001065
Li	      2.08699      2.03596     -4.14781         0.000758     -0.032987      0.000500
Li	      0.00155      4.00721     -4.14720         0.001638     -0.021251      0.002147
Li	      2.08648      0.16697     -2.07456         0.001483      0.007680      0.001632
Ti	      2.08816      6.37777     -4.14681        -0.003400      0.153115     -0.000791
Ti	      0.00203      6.33482     -2.07285        -0.000012      0.520810     -0.000516
Ni	      0.00130      2.03007     -2.07383        -0.001384     -0.041599     -0.001068
Ni	      2.08776      4.06393     -2.07298        -0.000471     -0.000070     -0.000376
O	      2.08732      2.10573     -2.07370        -0.001324     -0.135007     -0.000926
O	      0.00055      8.13033     -2.07385         0.003300     -0.525911      0.002787
O	      0.00153      4.32554     -2.07334         0.000721      0.100139     -0.000016
O	      2.08778      6.26494     -2.07290        -0.000169      0.083735     -0.002891
O	      0.00098      2.08051     -4.14802         0.000565      0.003030      0.001717
O	      2.08768      4.46495     -4.14742        -0.001279      0.212717      0.000946
O	      2.08683      8.23787     -4.14807         0.002965     -0.292209      0.000465
O	      0.00188      6.31647     -4.14696        -0.003925     -0.008119     -0.002544
