# total energy = -99.99439443 eV
 
CRYSTAL
PRIMVEC
0.000037 2.089958 2.089724 
8.550128 -2.092706 2.092699 
0.000201 4.185429 -4.184942 
PRIMCOORD
16 1
Li	      0.30677      2.08660      2.09280         0.015209      0.002454     -0.002344
Li	      2.13824      2.08975     -0.00160         0.002739      0.000403      0.001461
Li	      3.97219      4.18068     -0.00306        -0.014253     -0.000603      0.002171
Li	      2.14041      4.18227     -2.09200         0.001815     -0.000242     -0.000885
Ti	      6.41500     -0.03381      2.12465        -0.019790     -0.024150      0.023775
Ti	      6.41437      2.12223     -0.02926        -0.013417      0.024157     -0.025646
Ni	      0.16761      2.09094     -2.09062        -0.026503      0.000911     -0.001480
Ni	      4.11066     -0.00050      0.00075         0.030263     -0.001993      0.001923
O	      4.51716      2.05091      0.03861         0.240633      0.091643     -0.091921
O	      4.51772      0.03822      2.05213         0.242113     -0.098280      0.098251
O	      6.41420     -0.00095      0.00230         0.003138      0.000575     -0.002007
O	      6.41427      2.09184     -2.09013         0.002898     -0.000868      0.000074
O	      8.31108      0.03681      2.05354        -0.228683     -0.093413      0.093296
O	      2.09057      4.18120     -0.00220         0.187222      0.000573      0.000380
O	      8.31073      2.04952      0.04009        -0.227131      0.098052     -0.096896
O	      2.18819      2.08845      2.09059        -0.196252      0.000780     -0.000151
