# total energy = -102.74771726 eV
 
CRYSTAL
PRIMVEC
0.001269 2.091956 2.091908 
4.056893 -4.385543 4.388440 
4.056649 4.388747 -4.385435 
PRIMCOORD
16 1
Li	      4.06145     -2.02175      6.20540         0.010851     -0.002746      0.018166
Li	      2.02043      2.14317     -0.05174        -0.000495     -0.003994      0.003641
Li	      4.06133      4.01167      0.17226         0.008836      0.017664     -0.003219
Li	      6.07728      2.14288     -0.04837        -0.000581      0.003053     -0.003284
Ti	      1.97968     -0.01236      2.18182        -0.199766      0.047722      0.036007
Ti	      6.29419     -0.05236      2.14139         0.428181     -0.004563     -0.000792
Ni	      4.05647      0.07126     -0.06787        -0.005124     -0.023190      0.019819
Ni	      4.05644     -2.26182      2.26506        -0.001098      0.018496     -0.022415
O	      4.04989      2.06194      0.03311         0.006148      0.122334     -0.130784
O	      3.98335     -0.05300      2.14083        -0.004794     -0.002048     -0.000685
O	      6.10559      1.93118      2.25216         0.101072     -0.095165      0.100408
O	      4.05012     -2.16092      4.25576         0.002707     -0.128538      0.120990
O	      6.10573      0.05822      4.12502         0.100427      0.102780     -0.096194
O	      4.06221      4.33197     -2.24827        -0.277854      0.011285      0.011390
O	      1.98009      1.93576      2.23885        -0.083867     -0.135473      0.075349
O	      1.98018      0.04505      4.12930        -0.084644      0.072384     -0.128396
