# total energy = -102.53548029 eV
 
CRYSTAL
PRIMVEC
4.053763 -0.001889 0.001852 
-0.004077 4.189871 -4.187146 
-0.002351 6.481076 2.286872 
PRIMCOORD
16 1
Li	      4.04886      4.39551     -3.97681         0.001920     -0.014091     -0.017370
Li	      2.02527      2.14285      0.05143        -0.000437     -0.001234     -0.001898
Li	      4.05106      4.08025     -0.10986        -0.002126      0.014249      0.016290
Li	      2.02324      4.23707     -2.04276        -0.000299      0.000620     -0.000269
Ti	      2.18196      6.40220      0.17969         0.195367     -0.121193      0.121491
Ti	      1.86177      8.55786     -1.98350        -0.196134      0.128777     -0.112311
Ni	      4.05128      2.23219     -1.95458        -0.003017     -0.023440     -0.027307
Ni	      4.04882      6.24331     -2.13228         0.003949      0.025251      0.025553
O	      4.05213      2.14294      0.05020         0.000380     -0.000022     -0.000446
O	      2.02277      4.46475      0.26936         0.004617      0.120746      0.132972
O	      4.05010      4.23776     -2.04340         0.000356      0.000399      0.000030
O	      2.02248      6.52328     -1.85896        -0.005480      0.080117      0.071098
O	      4.04126      6.48882      0.08813        -0.227858     -0.061150      0.070614
O	      2.02160      8.43691      0.05539         0.003683     -0.081273     -0.071738
O	      0.00255      8.47164     -1.89191         0.229951      0.057763     -0.069857
O	      2.02520      6.30581      2.11423        -0.004870     -0.125519     -0.136852
