# total energy = -99.73115148 eV
 
CRYSTAL
PRIMVEC
0.000040 -0.000638 -4.156245 
-2.077839 8.588520 -2.077474 
4.156281 0.000519 -0.000042 
PRIMCOORD
16 1
Li	     -0.00115      0.28059     -4.15708         0.001915     -0.009024      0.001099
Li	      2.07642      2.14635     -4.15598         0.001108     -0.001147     -0.000409
Li	      0.00034      4.01229     -4.15663        -0.003222      0.006741     -0.001297
Li	     -0.00155      2.14704     -2.07800         0.001523     -0.002012      0.000279
Ti	      2.07941      6.44103     -4.15929        -0.000187      0.013075      0.003956
Ti	      0.00140      6.44136     -2.08115        -0.001592      0.008248      0.003371
Ni	      2.07679      0.18504     -2.07967         0.000557      0.021914     -0.000184
Ni	      2.07865      4.10913     -2.07763        -0.000045     -0.024790     -0.000236
O	      2.07645      2.14693     -2.07782         0.001585      0.004924     -0.001385
O	     -0.00103      8.34312     -2.07897         0.000523     -0.223216      0.001621
O	      0.00022      4.53988     -2.07742        -0.001608      0.216807     -0.003305
O	      2.07893      6.36122     -2.07995         0.000812      0.065060      0.001786
O	     -0.00170      2.14620     -4.15591         0.001783      0.004062     -0.001444
O	      2.07825      4.53987     -4.15558        -0.001027      0.215072     -0.003425
O	      2.07719      8.34306     -4.15698         0.000020     -0.225070      0.000516
O	      0.00080      6.52185     -4.15827        -0.002145     -0.070645     -0.000943
