# total energy = -103.14508499 eV
 
CRYSTAL
PRIMVEC
-0.000104 2.091553 2.091121 
4.265036 -2.121110 2.120548 
4.247744 6.345204 -6.344147 
PRIMCOORD
16 1
Li	      0.14116      0.16688     -0.16439         0.024051      0.001577     -0.003614
Li	      1.98044      1.93601      0.15680        -0.024782     -0.003243      0.001821
Li	      4.19620      4.15751      0.02470        -0.024467     -0.022963      0.023110
Li	      6.43546      4.26084     -2.16665         0.022511      0.023800     -0.024585
Ti	      6.27266      2.07529      0.01517        -0.341854     -0.091459      0.092607
Ti	      4.35908      4.25112     -4.24969         0.344122      0.088397     -0.087375
Ni	      2.19965      0.03906      2.05330        -0.074026     -0.073826      0.074013
Ni	      4.18627     -0.05808      0.05880         0.074863      0.073468     -0.073578
O	      4.17260      4.31545     -2.22296        -0.022799      0.037244     -0.036210
O	      4.42717      2.11304     -0.02180         0.367214      0.072478     -0.071814
O	      6.45865      4.10273      0.07993         0.026676     -0.037324      0.037287
O	      4.23349      0.02038      2.07198         0.127773     -0.125170      0.124665
O	      2.17701      4.33903     -0.15602         0.047381      0.139104     -0.137087
O	      4.18973      6.20008     -4.10749        -0.050864     -0.138810      0.137641
O	      2.15266     -0.03935      0.04046        -0.128750      0.127072     -0.127930
O	      6.20471      4.21330     -4.21143        -0.367049     -0.070346      0.071050
