# total energy = -101.89684898 eV
 
CRYSTAL
PRIMVEC
0.000139 2.111204 2.110853 
4.312174 -2.121081 2.120950 
4.431065 6.485048 -6.483673 
PRIMCOORD
16 1
Li	      0.27643      0.23951     -0.23353         0.018008     -0.002048      0.002491
Li	      1.96989      1.91321      0.20323        -0.016669      0.011663     -0.014323
Li	      4.24690      2.05300     -2.05170        -0.017480     -0.014539      0.014564
Li	      2.36349      0.21819      1.89834        -0.009683     -0.014901      0.013443
Ti	      6.41572      2.13052     -0.01805        -0.412527     -0.200841      0.200320
Ti	      4.52810      4.37477     -4.37346         0.411016      0.116546     -0.116735
Ni	      6.50924      4.29488     -2.18267         0.000292      0.004417     -0.004833
Ni	      4.13063     -0.08751      0.09231         0.132265      0.109779     -0.109620
O	      4.33105      4.42794     -2.31565        -0.099309      0.037865     -0.037425
O	      4.61107      2.20997     -0.09760         0.493721      0.020512     -0.019825
O	      6.63395      2.14547     -2.14435         0.004143     -0.096163      0.096347
O	      4.36073      0.07104      2.04502         0.022822     -0.122501      0.126524
O	      2.33731      2.36610     -2.36447        -0.022922      0.194797     -0.195481
O	      4.26705      6.29725     -4.18505         0.102973     -0.168743      0.167667
O	      2.19022      0.03273     -0.02753        -0.166578      0.003522     -0.001711
O	      6.34845      6.31455     -2.09156        -0.440073      0.120634     -0.121402
