# total energy = -101.80707735 eV
 
CRYSTAL
PRIMVEC
-0.000160 2.099595 2.099988 
4.392769 -2.089214 2.089268 
4.540793 6.412542 -6.414164 
PRIMCOORD
16 1
Li	      0.25918      0.21953     -0.21823         0.039034      0.009906     -0.010574
Li	      1.94420      1.95344      0.14785         0.005118      0.007003     -0.006663
Li	      4.28627      2.04812     -2.04631        -0.015955     -0.037488      0.038369
Li	      4.33116     -0.10358      0.10501         0.013282      0.015691     -0.015605
Ti	      6.49622      2.12431     -0.02243        -0.708846     -0.189306      0.189035
Ti	      4.60054      4.31836     -4.31746         0.256480      0.091426     -0.091390
Ni	      6.65530      4.27679     -2.17521         0.004037     -0.001554      0.000992
Ni	      2.53920      0.18727      1.91404        -0.190702     -0.112397      0.111882
O	      4.47129      4.38259     -2.28096        -0.090725      0.066780     -0.067117
O	      4.73740      2.25095     -0.14929         0.715816     -0.031374      0.033387
O	      6.82782      2.14052     -2.13869         0.027516     -0.085523      0.084810
O	      4.42752      0.01716      2.08414         0.214673     -0.016076      0.016450
O	      2.35869      2.32450     -2.32252        -0.007109      0.195590     -0.198330
O	      4.33844      6.24683     -4.14557         0.099936     -0.136842      0.141403
O	      2.20982     -0.00820      0.00973        -0.044426      0.151310     -0.151648
O	      6.46950      4.21782     -4.21580        -0.318128      0.072852     -0.075000
