# total energy = -99.76338774 eV
 
CRYSTAL
PRIMVEC
0.000046 2.131184 2.130841 
4.358008 -2.119479 2.119403 
4.702665 6.707358 -6.706252 
PRIMCOORD
16 1
Li	      0.32077      0.31999     -0.31324         0.017875      0.012507     -0.013128
Li	      1.94233      1.90043      0.23712        -0.018535     -0.015327      0.013659
Li	      2.52205      0.27813      1.85952         0.016749      0.025362     -0.021857
Li	      4.09881     -0.17745      0.18384        -0.017784     -0.021610      0.024213
Ti	      6.59846      2.25789     -0.12233        -0.440780     -0.176693      0.177165
Ti	      4.73107      4.54173     -4.53747         0.429171      0.181177     -0.179685
Ni	      4.54283      2.33470     -2.33004         0.010029     -0.014885      0.013546
Ni	      6.78631      4.46511     -2.32973        -0.005192      0.014036     -0.012401
O	      4.48743      4.51574     -2.38028        -0.056816      0.067479     -0.065121
O	      4.80456      2.49478     -0.35902         0.483774     -0.131198      0.129485
O	      6.84183      2.28408     -2.27964         0.056979     -0.068379      0.069582
O	      4.42531      0.08176      2.05576         0.000154     -0.000340     -0.000811
O	      2.52991      2.49896     -2.49408        -0.133402      0.196046     -0.199051
O	      4.44183      6.42016     -4.28477         0.129830     -0.196283      0.195481
O	      2.19551      0.01848     -0.01195         0.000209      0.000275     -0.000951
O	      6.52434      4.30509     -4.30078        -0.472261      0.127833     -0.130126
