# total energy = -92.86145890 eV
 
CRYSTAL
PRIMVEC
-0.000495 2.056565 2.062986 
8.060096 -4.209574 4.219689 
2.026707 2.139735 -4.209269 
PRIMCOORD
16 1
Li	      2.03205      2.06458      0.00098        -0.004120      0.004866     -0.004372
Li	      2.00833     -0.00180      2.05651         0.004965     -0.005798      0.005206
Li	      6.06266      2.04670      0.01799        -0.014977     -0.010483      0.009259
Li	      8.06435     -2.05534      2.05008         0.016540      0.010092     -0.008016
Mn	      0.05200     -0.00259      0.00273         0.006235     -0.008285      0.003870
Mn	      3.98882      0.00799     -0.00795        -0.008313      0.008613     -0.004279
Ni	      6.06382     -0.05908      2.12103         0.014168     -0.004253      0.005140
Ni	      6.03618     -2.08920      4.15663        -0.012993      0.004891     -0.005145
O	      2.03762      2.25705     -2.27035         0.017792      0.013997     -0.003460
O	      5.95328     -0.04489      0.04714        -0.114258      0.105945     -0.112256
O	      6.05026     -2.10239      2.10728        -0.000266     -0.000553     -0.000113
O	      8.17374      0.03640      2.02135         0.113596     -0.104556      0.110178
O	      8.09725     -2.24784      4.32208         0.107237     -0.040410      0.020929
O	      2.02038      0.00299     -0.00278        -0.001036     -0.000585     -0.000075
O	      4.02966      1.94461      0.11886        -0.019410     -0.014411      0.003186
O	      4.00283      0.10021      1.95535        -0.105161      0.040931     -0.020050
