# total energy = -103.14373486 eV
 
CRYSTAL
PRIMVEC
-0.000003 2.096799 2.096808 
4.139060 -2.135082 2.135095 
4.098190 6.363565 -6.363570 
PRIMCOORD
16 1
Li	      8.22088      4.21996     -4.21868         0.010994     -0.010351      0.010880
Li	      2.07520      2.11439     -0.01654        -0.010754      0.011230     -0.011189
Li	      2.19824      4.38347     -2.28632         0.018443      0.002554     -0.002262
Li	      3.95839      4.08595     -4.08554        -0.018024     -0.002416      0.002353
Ti	      5.97859      6.32591     -4.22735        -0.524266     -0.023322      0.022427
Ti	      4.31786      0.00937     -0.00792         0.522940      0.023990     -0.024487
Ni	      4.11939      2.18008     -2.17982        -0.115143     -0.087285      0.087570
Ni	      6.17628      4.15403     -2.05692         0.116516      0.088799     -0.088255
O	      4.14773      4.17862     -2.08162        -0.108249      0.128442     -0.127515
O	      4.08990      1.98849      0.10953         0.004664     -0.143572      0.143762
O	      6.14803      2.15563     -2.15538         0.108204     -0.128595      0.129307
O	      4.08952      0.09663      2.00148        -0.027204      0.052772     -0.053641
O	      1.98166      2.06591     -2.06475        -0.547691     -0.005593      0.005482
O	      4.17565      6.40410     -4.30596         0.547304      0.005304     -0.005280
O	      2.10856     -0.12508      0.12645         0.027402     -0.053737      0.052724
O	      6.20657      4.34666     -4.34531        -0.005137      0.141778     -0.141875
