# total energy = -99.60683280 eV
 
CRYSTAL
PRIMVEC
-0.000144 2.140316 2.139841 
3.671770 -2.594432 2.593485 
3.621957 7.850956 -7.848849 
PRIMCOORD
16 1
Li	      3.53362     -1.90491      1.90593         0.007119     -0.012496      0.011555
Li	      1.71073      2.22969     -0.08742        -0.048442     -0.015242      0.015539
Li	      1.63586      0.44777      1.69378        -0.023988      0.003764     -0.000784
Li	      2.00930      4.36849     -2.22508         0.023645     -0.004749      0.002023
Ti	      5.52198      5.03059     -2.88658         0.017741      0.034236     -0.036059
Ti	      3.66623      5.24410     -5.24065         0.029145      0.002072     -0.000610
Ni	      3.58988      1.92733     -1.92321         0.291026      0.044460     -0.071608
Ni	      3.63442     -0.06440      0.06567         0.040467      0.025117     -0.025410
O	      3.57273      5.37477     -3.23126         0.066302      0.075202     -0.073752
O	      3.91280      2.20353     -0.06164         0.037845     -0.124118      0.152783
O	      5.39717      3.00970     -3.00669         0.124815      0.067400     -0.067549
O	      3.46485      0.03952      2.10155        -0.014843     -0.086459      0.088058
O	      1.99646      2.53023     -2.52704        -0.268518      0.109847     -0.111364
O	      3.77932      7.25261     -5.10879        -0.100816     -0.074275      0.072214
O	      1.66412      0.19656     -0.19483        -0.085761      0.017656     -0.017362
O	      5.62405      4.89789     -4.89471        -0.095736     -0.062416      0.062325
