# total energy = -101.62640137 eV
 
CRYSTAL
PRIMVEC
0.000883 2.171794 2.153103 
3.816661 -2.467416 2.448366 
3.766786 7.377044 -7.313570 
PRIMCOORD
16 1
Li	      3.68177      0.21827      4.08943        -0.014776     -0.012405      0.010510
Li	      1.68970      2.07920      0.08598        -0.015598     -0.013985      0.012169
Li	      1.63666      0.35169      1.80913        -0.034433     -0.015109      0.019069
Li	      4.20615      4.81248     -4.74248        -0.001669      0.031865     -0.023877
Ti	      6.11478      4.58374     -2.39939         0.762305      0.132844     -0.134136
Ti	      5.64878      2.24128     -0.22522        -0.195772     -0.161073      0.050718
Ni	      3.71860      2.48413     -2.44547        -0.053517     -0.021946      0.022188
Ni	      3.51943      2.00511      2.29446         0.149953      0.059586     -0.067446
O	      3.82100      4.59113     -2.38259        -0.030549      0.069533     -0.095500
O	      3.80743      2.60230     -0.38188         0.239875     -0.118361      0.081974
O	      5.80890      2.40326     -2.26388         0.097714     -0.045285      0.047415
O	      3.63629      0.04473      2.09894         0.029239     -0.130489      0.132576
O	      1.70901      5.00091     -0.68663         0.004618      0.247181     -0.111117
O	      4.00724      6.76171     -4.52609        -0.703546      0.100796     -0.111935
O	      1.67568      0.14628     -0.14385        -0.217202      0.034983     -0.034237
O	      6.03969      6.47817     -2.11554        -0.016644     -0.158136      0.201628
