# total energy = -98.90433405 eV
 
CRYSTAL
PRIMVEC
-0.000094 2.119140 2.119518 
4.445044 -2.112084 2.112263 
4.996551 6.874558 -6.876174 
PRIMCOORD
16 1
Li	      0.27116      2.48938      1.74376         0.039426      0.012975     -0.013086
Li	      2.03016      2.28741     -0.17374        -0.032685      0.014259     -0.013307
Li	      4.91817      2.21652      2.01689         0.036119     -0.013525      0.013847
Li	      2.23295      4.12713     -2.01328        -0.038354     -0.015066      0.014775
Ti	      6.99973      4.56633     -2.45387        -0.035484     -0.025161      0.026358
Ti	      4.94578      6.81199     -2.58014         0.034350      0.026422     -0.025219
Ni	      4.17196      3.99797      0.23505         0.204868      0.106578     -0.108290
Ni	      2.77664      0.50584      1.60813        -0.205328     -0.107404      0.103961
O	      5.05225      4.78411     -2.67142         0.126956      0.060853     -0.059472
O	      4.86445      2.32140     -0.20798         0.140757     -0.168689      0.170142
O	      7.29394      4.73913     -0.50715         0.016056      0.113578     -0.115408
O	      4.50826      0.12912      1.98492         0.337434     -0.052282      0.050189
O	      2.44070      4.37511     -0.14210        -0.342785      0.048127     -0.050420
O	      4.65246      6.63911     -4.52636        -0.020751     -0.111010      0.110338
O	      2.08445      2.18256      2.05054        -0.140121      0.171910     -0.167083
O	      6.89319      6.59465     -2.36240        -0.120458     -0.061566      0.062675
