# total energy = -101.79043099 eV
 
CRYSTAL
PRIMVEC
0.000301 2.153541 2.158045 
3.696642 -2.554779 2.560600 
3.636745 7.632934 -7.648153 
PRIMCOORD
16 1
Li	      3.76003     -2.17115      2.17707         0.017023      0.002690     -0.002031
Li	      1.89700      1.92944      0.22462        -0.013634      0.000797     -0.002152
Li	      3.78877     -0.45369      0.46107         0.005118      0.002843     -0.000423
Li	      3.90548      7.12617     -2.83117         0.015783      0.004137     -0.005592
Ti	      5.79897      4.78415     -2.61637         0.560780      0.156415     -0.127533
Ti	      5.20230      2.55408     -0.33045        -0.377743     -0.096099      0.164819
Ni	      3.39696      4.92195     -0.61941        -0.076964     -0.041548      0.040841
Ni	      1.88941      0.11822      2.03863        -0.092524     -0.070885      0.066815
O	      3.57726      4.84968     -2.70546         0.015522      0.102518     -0.097292
O	      3.42652      2.86370     -0.72523         0.341473     -0.135283      0.148785
O	      5.47785      4.66953     -0.42677         0.104133     -0.025141      0.007597
O	      3.73819     -0.23687      2.39900         0.210705     -0.022612      0.023892
O	      5.10802      0.62542     -0.60513        -0.056136      0.157402     -0.219374
O	      3.82899      6.98309     -4.84824        -0.647686      0.024919     -0.023068
O	      1.86965     -0.07638      0.07795         0.005844      0.142830     -0.140966
O	      5.78608      4.50178     -4.50571        -0.011694     -0.202982      0.165682
