# total energy = -101.85789476 eV
 
CRYSTAL
PRIMVEC
-0.000013 2.138382 2.138098 
3.926928 -2.165247 2.164908 
3.918278 6.487364 -6.486474 
PRIMCOORD
16 1
Li	      3.96855     -1.99338      1.99454        -0.025143      0.003141     -0.002891
Li	      3.90424      2.17566     -2.17442        -0.023312     -0.013264      0.012498
Li	      3.87900     -0.17451      0.17526         0.020702     -0.002726      0.003871
Li	      3.93443      4.30961     -4.30753         0.025425      0.011825     -0.012266
Ti	      5.95013      4.34691     -2.20676         0.380631      0.127627     -0.126755
Ti	      5.81559      2.11070      0.02773        -0.386554     -0.126632      0.126235
Ni	      1.95524      2.04741      0.09188         0.078225      0.079910     -0.079353
Ni	      1.96524      0.08836      2.05098        -0.077136     -0.079554      0.080807
O	      3.91942      4.31163     -2.17173        -0.000724     -0.000172     -0.000790
O	      3.99120      2.21619     -0.07692         0.467512      0.014097     -0.013627
O	      5.88276      2.15987     -2.15825         0.001904      0.000701     -0.000529
O	      3.92368     -0.01462      2.15400         0.001311     -0.001025     -0.000548
O	      1.95526      2.32839     -2.32719        -0.002384      0.168892     -0.167529
O	      3.84734      6.40704     -4.26675        -0.464522     -0.014206      0.013800
O	      1.96017     -0.00131      0.00247         0.001099     -0.000259     -0.000758
O	      5.88343      4.15647     -4.15457         0.002966     -0.168354      0.167835
