# total energy = -103.06259428 eV
 
CRYSTAL
PRIMVEC
0.000074 2.097604 2.097387 
4.226431 -2.133166 2.133119 
4.178819 6.352066 -6.351339 
PRIMCOORD
16 1
Li	      4.12736      8.33458     -4.14084         0.006201      0.009899     -0.009510
Li	      2.01723      2.01805      0.07996        -0.008513     -0.027632      0.027293
Li	      4.22389      4.20541     -0.01022        -0.009279      0.000798     -0.000956
Li	      6.17199      6.25364     -4.15666         0.007442      0.021612     -0.020859
Ti	      4.04496     -0.04570      0.04598        -0.596903     -0.116729      0.117818
Ti	      2.21576      4.22961     -2.13227         0.224533     -0.041315      0.041291
Ni	      6.36577      4.31226     -2.21519        -0.064741     -0.068194      0.067853
Ni	      4.28297      6.42024     -2.22567        -0.018462     -0.027190      0.026675
O	      4.08785      4.22041     -2.12293        -0.306051     -0.059519      0.060314
O	      4.34161      2.01318      0.08484         0.038783     -0.025488      0.024575
O	      6.27828      4.11143      0.08371        -0.058894     -0.115644      0.115776
O	      4.28278      0.12928      1.96886        -0.012784      0.152853     -0.153081
O	      2.09606      2.25242     -2.25198        -0.002009      0.097150     -0.097615
O	      4.13337      6.31568     -4.21877         0.098633      0.102325     -0.102649
O	      2.25772      0.04837     -0.04788         0.589851     -0.013751      0.013679
O	      6.26575      6.28546     -2.09102         0.112193      0.110824     -0.110603
