# total energy = -103.23099990 eV
 
CRYSTAL
PRIMVEC
0.000030 2.110886 2.110274 
4.078216 -2.115802 2.115223 
4.061520 6.330634 -6.328576 
PRIMCOORD
16 1
Li	      4.08704      6.31328     -6.30847         0.032932      0.030974     -0.036195
Li	      2.03462      2.10781      0.00173         0.000837      0.002569     -0.001179
Li	      4.04597      2.12632     -2.12497        -0.035077     -0.032619      0.033785
Li	      4.07433     -0.00369      0.00399         0.000508     -0.000849      0.001785
Ti	      2.14614      0.03366      2.07816         0.500275      0.143651     -0.144737
Ti	      6.00279      2.06941      0.04286        -0.486250     -0.141282      0.140624
Ni	      6.10567      4.21676     -2.10403        -0.001989     -0.002064      0.002301
Ni	      4.06668      4.21918     -4.21668        -0.005832     -0.002279      0.002231
O	      4.03575      4.26249     -2.14915        -0.105183     -0.082701      0.082999
O	      4.18361      2.11533     -0.00283         0.432221     -0.006170      0.004058
O	      6.09191      2.07054     -2.06839        -0.084851     -0.084437      0.085172
O	      3.96599     -0.01231      2.12289        -0.445654      0.004188     -0.002381
O	      2.03975      2.23347     -2.23081        -0.003352      0.134893     -0.134727
O	      4.09707      6.28665     -4.17382         0.108937      0.086378     -0.084848
O	      2.03129     -0.12549      0.12556         0.002036     -0.137551      0.139543
O	      6.11912      4.25199     -4.24961         0.090441      0.087298     -0.088431
