# total energy = -90.87048073 eV
 
CRYSTAL
PRIMVEC
0.000034 2.093906 -2.093901 
-0.000037 2.093910 2.093905 
16.074571 0.000086 -0.000290 
PRIMCOORD
16 1
Li	      2.13043      2.09637     -0.00090         0.026529      0.001674      0.000016
Li	      3.90011      0.00351     -0.00074        -0.023674     -0.003056     -0.000480
Li	      8.06566      0.00196     -0.00089        -0.013595      0.000611     -0.000646
Li	     14.04176      2.09601     -0.00158         0.013786     -0.001344      0.000552
Mn	      0.00685      0.00223     -0.00076         0.015985     -0.000924     -0.000981
Mn	      6.02536      2.09675     -0.00093        -0.013138     -0.001170      0.000259
Ni	      9.96917      2.09555     -0.00137        -0.083090      0.001315     -0.000051
Ni	     12.13923      0.00147     -0.00136         0.079874      0.001941     -0.001479
O	     14.19222      0.00194     -0.00173         0.124102     -0.000764      0.003272
O	      0.00046      2.09613     -0.00077         0.026125      0.003293     -0.001234
O	     10.07297      0.00165     -0.00143        -0.055800      0.000929     -0.000035
O	     12.03564      2.09540     -0.00140         0.051170     -0.000271      0.000459
O	      6.03210      0.00287     -0.00096        -0.022729      0.000170     -0.000218
O	      7.91494      2.09619     -0.00087        -0.119243     -0.000598     -0.000489
O	      1.85984      0.00266     -0.00080        -0.022503     -0.001185      0.000692
O	      4.17251      2.09688     -0.00094         0.016202     -0.000621      0.000363
