# total energy = -99.57890549 eV
 
CRYSTAL
PRIMVEC
-0.000335 2.134203 2.134925 
4.311916 -2.120124 2.119832 
4.681007 6.730666 -6.734525 
PRIMCOORD
16 1
Li	      0.31700      0.28146     -0.28083        -0.000313      0.013583     -0.013130
Li	      1.94643      1.93474      0.20127        -0.001047     -0.023880      0.021560
Li	      2.45961      0.29577      1.83933         0.000682      0.023440     -0.022975
Li	      4.08971     -0.18528      0.18639        -0.002053     -0.014232      0.013407
Ti	      6.85528      4.54175     -2.41073         0.512604      0.131135     -0.130870
Ti	      6.54387      2.29547     -0.16547        -0.497717     -0.138296      0.140424
Ni	      4.48436      4.48073     -0.21599        -0.008815     -0.034134      0.035929
Ni	      4.60197      6.60998     -2.34434         0.012801      0.041966     -0.042137
O	      4.54345      4.47900     -2.34831         0.002910     -0.005570      0.005466
O	      4.75154      2.48197     -0.35179         0.509649     -0.116726      0.115504
O	      6.69988      4.48525     -0.22035        -0.003872      0.004005     -0.002572
O	      4.35883      0.05499      2.08026         0.001733      0.000128      0.000382
O	      2.47356      4.65602     -0.39121        -0.101801      0.180331     -0.182315
O	      4.33606      6.47537     -4.34407        -0.520880      0.113799     -0.113646
O	      2.20329      0.04812     -0.04711         0.000722      0.000116     -0.000587
O	      6.61422      4.30070     -4.30394         0.095399     -0.175666      0.175559
