# total energy = -103.18256671 eV
 
CRYSTAL
PRIMVEC
0.000024 2.105915 2.105683 
4.105283 -2.116131 2.115983 
4.084986 6.328080 -6.327336 
PRIMCOORD
16 1
Li	      0.22756      0.04685     -0.04426         0.004764      0.003596     -0.004127
Li	      2.03242      2.09798      0.01134        -0.023420     -0.005781      0.003953
Li	      2.06704      0.11912      1.99093        -0.024821      0.001990     -0.003148
Li	      1.99934      4.10011     -1.98947         0.021754      0.001527     -0.001505
Ti	      6.21404      4.23823     -2.13543         0.191433      0.059586     -0.059408
Ti	      4.07984     -0.03168      0.03387        -0.132786     -0.096323      0.096733
Ni	      3.94882      2.06481     -2.06081         0.026193      0.007989     -0.008731
Ni	      4.05864      4.18935     -4.18682         0.000188      0.022102     -0.020409
O	      4.15380      4.20488     -2.09565         0.052916     -0.018505      0.017327
O	      4.09874      2.07301      0.03732         0.006854     -0.131147      0.133402
O	      6.09538      2.22129     -2.21839        -0.020004      0.071130     -0.070081
O	      4.10779      0.10065      2.00902         0.010886      0.097481     -0.098999
O	      1.94851      2.13188     -2.12748        -0.219700      0.008086     -0.007993
O	      3.99889      6.27113     -4.16245        -0.246390      0.091935     -0.092957
O	      2.19054     -0.01110      0.01519         0.229803      0.001764     -0.003287
O	      6.12607      4.10432     -4.10291         0.122330     -0.115430      0.119229
