# total energy = -103.50822300 eV
 
CRYSTAL
PRIMVEC
-0.000001 2.107309 2.107206 
4.134068 -2.126881 2.126767 
4.049159 6.295914 -6.295609 
PRIMCOORD
16 1
Li	      0.12659      2.05725      2.15341         0.002435      0.000209      0.001413
Li	      2.01966      2.10270     -0.00155        -0.028046     -0.017882      0.018249
Li	      5.98617      6.33464     -4.23199        -0.007061     -0.001300      0.001559
Li	      4.09236      6.28896     -2.07717         0.028012      0.018586     -0.020514
Ti	      6.24571      4.22659     -2.12181         0.380350      0.155745     -0.157003
Ti	      4.00019      2.03809      2.16939        -0.374090     -0.157681      0.158221
Ni	      4.03141      4.19981      0.01016        -0.024802     -0.066340      0.065994
Ni	      2.08030      4.19162     -2.08909         0.029768      0.069826     -0.071177
O	      4.13863      4.13015     -2.02743         0.115288      0.094292     -0.092326
O	      4.12340      2.03191      0.07056        -0.083965     -0.078044      0.078710
O	      6.12274      4.23300     -0.02293         0.081996      0.074416     -0.073575
O	      4.12702      0.09786      2.00354        -0.018552      0.154589     -0.156324
O	      1.97350      4.26152     -0.05186        -0.119557     -0.096797      0.097139
O	      3.94245      6.30003     -4.19645        -0.364791     -0.005601      0.005733
O	      2.16966      2.09144      2.11751         0.364581      0.008505     -0.007702
O	      6.11913      6.16670     -1.95579         0.018433     -0.152524      0.151605
