# total energy = -102.38787418 eV
 
CRYSTAL
PRIMVEC
0.000050 2.133677 2.133614 
4.047345 -2.154095 2.154191 
4.034117 6.448348 -6.448119 
PRIMCOORD
16 1
Li	      0.03256      2.17904      2.08750         0.040641      0.024453     -0.025844
Li	      2.01136      2.31343     -0.17963        -0.042232     -0.012340      0.011848
Li	      4.08786      2.26158      2.00537        -0.006448     -0.007975      0.008984
Li	      4.02276      6.36434     -2.09744        -0.014845      0.001056     -0.001793
Ti	      6.11332      4.25669     -2.12283         0.106401     -0.088669      0.089282
Ti	      2.10307      0.03431      2.09801         0.574825      0.215791     -0.212867
Ni	      3.98842      4.20312      0.06409        -0.017760      0.007237     -0.007059
Ni	      1.98696      4.17246     -2.03883         0.056970      0.071714     -0.072433
O	      4.16055      4.26667     -2.13361         0.193470      0.077937     -0.077253
O	      4.06680      2.18454     -0.05080        -0.117608     -0.081172      0.080217
O	      6.10326      4.41646     -0.14967         0.081604      0.128281     -0.127868
O	      3.88492     -0.06916      2.20163        -0.573062     -0.008742      0.009724
O	      2.01330      4.32527     -0.05791        -0.126815     -0.094749      0.093695
O	      3.96070      6.41905     -4.28629        -0.176283     -0.019462      0.020047
O	      1.96444      1.92706      2.33928         0.020716     -0.182087      0.179146
O	      6.03375      6.39566     -2.12952         0.000425     -0.031272      0.032174
