# total energy = -102.30233131 eV
 
CRYSTAL
PRIMVEC
-0.000002 2.124149 2.124204 
4.113101 -2.136758 2.136836 
4.073460 6.371407 -6.371577 
PRIMCOORD
16 1
Li	      4.13604      0.08851      4.15824         0.019241      0.017769     -0.017948
Li	      2.09885      2.32220     -0.19984        -0.010628     -0.009079      0.009062
Li	      1.98208      4.04762     -1.92506         0.009621      0.009382     -0.009954
Li	      4.06002      6.26754     -2.02083        -0.020622     -0.018545      0.018088
Ti	      6.19213      4.18675     -2.06377        -0.160948     -0.177364      0.177684
Ti	      2.00388      0.04498      2.07803         0.162086      0.180658     -0.180414
Ni	      4.01784      4.17928      0.06762         0.050586      0.029416     -0.030329
Ni	      4.17634      2.17809      2.06871        -0.049481     -0.033516      0.031735
O	      4.30872      4.20888     -2.08622         0.251613      0.071467     -0.072068
O	      4.09674      2.11641      0.00622         0.000024      0.000261      0.000427
O	      6.22575      4.39407     -0.14714         0.077699      0.184152     -0.185574
O	      3.88699      0.02316      2.09939        -0.252351     -0.071080      0.072493
O	      2.04045      4.24689     -0.00028         0.000166      0.000268      0.000863
O	      4.07773      6.37024     -4.24753        -0.000728     -0.000955      0.001572
O	      1.96968      1.96165      2.28534        -0.076496     -0.183272      0.183133
O	      6.13443      6.36354     -2.11709         0.000219      0.000438      0.001228
