# total energy = -99.60201809 eV
 
CRYSTAL
PRIMVEC
-0.007254 2.174782 2.089697 
3.829566 -2.424541 2.346757 
3.814168 7.302512 -7.090403 
PRIMCOORD
16 1
Li	      3.72487      0.32056      3.75307        -0.001367     -0.016354      0.000827
Li	      1.71566      2.24141     -0.20111        -0.002613     -0.006109     -0.008298
Li	      3.52204      2.02863     -1.88908        -0.019947      0.002879     -0.000020
Li	      1.72480      0.46825      1.59858        -0.045396     -0.005799      0.006788
Ti	      5.96244      4.54713     -2.27401         0.022626      0.054340     -0.040070
Ti	      4.13996      4.73695     -4.54866         0.094455      0.060417     -0.039278
Ni	      3.63119      2.24811      1.96434         0.017166     -0.010589     -0.006953
Ni	      1.86830      4.51549     -2.27104         0.174934      0.076553     -0.107262
O	      3.98001      4.84642     -2.51119         0.133227      0.046043     -0.042946
O	      3.77301      2.33320      0.00008        -0.166193      0.057672     -0.123413
O	      5.92382      2.50372     -2.31992         0.060987      0.068709     -0.057052
O	      3.57453      0.08029      1.79981        -0.026251     -0.045244      0.142522
O	      1.78641      2.57625     -2.42900         0.100756     -0.123226      0.147900
O	      4.13890      6.72551     -4.44920        -0.062829     -0.100456      0.086641
O	      1.73510      2.35605      1.83045        -0.162970      0.005700     -0.015614
O	      6.07106      6.56774     -2.20337        -0.116585     -0.064534      0.056229
