# total energy = -102.43210463 eV
 
CRYSTAL
PRIMVEC
-0.000034 2.131156 2.129826 
4.031175 -2.139041 2.137675 
4.040864 6.426680 -6.422739 
PRIMCOORD
16 1
Li	      4.08559     -1.93876      1.94075         0.001152      0.009016     -0.010552
Li	      1.88051      1.96489      0.16821        -0.015066     -0.004474      0.006173
Li	      4.03887      2.05675     -2.05505        -0.013931     -0.005935      0.006990
Li	      4.06629      4.28402     -4.27963         0.001804      0.011193     -0.010574
Ti	      6.13750      4.31762     -2.18588         0.410447      0.123520     -0.125472
Ti	      2.09257      4.22136     -2.09388        -0.108051     -0.170935      0.162363
Ni	      1.94626      0.11346      2.02014        -0.125315     -0.093293      0.094683
Ni	      3.97726     -0.02532      0.02724         0.054108      0.038636     -0.038095
O	      4.04866      4.28062     -2.14567        -0.034994     -0.007172      0.005767
O	      4.22983      2.12794      0.00582         0.221956      0.076793     -0.078201
O	      6.06954      2.15277     -2.14440         0.010352     -0.012645      0.010803
O	      3.94811      0.06755      2.06499         0.136540     -0.104618      0.105302
O	      2.09851      2.30041     -2.29794         0.083832      0.191764     -0.184965
O	      3.91911      6.37287     -4.23674        -0.506178     -0.015381      0.015731
O	      1.96203     -0.02469      0.02741        -0.118332      0.127321     -0.128183
O	      6.03232      4.13052     -4.12715         0.001677     -0.163791      0.168230
