# total energy = -103.37480661 eV
 
CRYSTAL
PRIMVEC
-0.000151 2.105844 2.105974 
4.121242 -2.121017 2.120842 
4.099716 6.340999 -6.341665 
PRIMCOORD
16 1
Li	      0.17439      2.14261      2.06531         0.000178      0.007157     -0.001883
Li	      2.05782      2.12241     -0.01866         0.020692     -0.002287      0.004550
Li	      3.96235      4.15033      0.05899        -0.001483     -0.016853      0.017731
Li	      2.04086      0.10159      2.00320        -0.023242      0.011684     -0.012234
Ti	      6.17971      4.23567     -2.12322         0.092949      0.101302     -0.099185
Ti	      4.02412     -0.03605      0.03778        -0.285791     -0.049255      0.048204
Ni	      2.06709      4.15408     -2.04884         0.037936      0.068111     -0.069040
Ni	      4.11908      4.23569     -4.23378         0.050717      0.022137     -0.022978
O	      4.18278      4.26624     -2.15887         0.157276     -0.092656      0.094310
O	      4.13820      2.00862      0.09574        -0.120390     -0.053682      0.054166
O	      6.14813      2.17376     -2.17332        -0.091376      0.094204     -0.097751
O	      4.12857      0.08544      2.01940        -0.013721      0.099122     -0.100921
O	      1.98778      4.26523     -0.05440        -0.043540     -0.106869      0.108263
O	      3.98451      6.30028     -4.19257        -0.167054      0.073875     -0.076103
O	      2.16990      2.08855      2.12228         0.288231     -0.003728      0.004862
O	      6.17688      4.09521     -4.09274         0.098617     -0.152262      0.148009
