# total energy = -92.61346905 eV
 
CRYSTAL
PRIMVEC
2.174834 4.041943 2.006466 
4.310326 -1.975458 -2.056395 
0.070569 4.020047 -4.039955 
PRIMCOORD
16 1
Li	      2.05302      1.98957     -0.03790        -0.003213     -0.007351     -0.018151
Li	      2.29611      0.06216     -2.01941         0.002226      0.006649      0.017959
Li	      6.44954      4.08002     -2.06263        -0.023228     -0.004098      0.006517
Li	      4.45549      4.05853     -4.08468         0.024081      0.005321     -0.007141
Mn	      0.01998      0.00941     -0.01506         0.026688     -0.006183     -0.059456
Mn	      4.32891      2.04234     -2.04234        -0.026502      0.010613      0.058917
Ni	      2.22457      4.06938     -2.02400        -0.068543      0.048677      0.047849
Ni	      4.36972      6.04435     -2.06663         0.067848     -0.044765     -0.052332
O	      4.25876      3.98267     -2.06324         0.135586     -0.137432      0.005181
O	      4.36483      2.04808     -4.07681        -0.000021      0.001016      0.000170
O	      4.52923      2.04343     -0.10475         0.013117     -0.000015     -0.136619
O	      4.32961      0.03802     -2.05679        -0.000231      0.002709     -0.000601
O	      1.99471      4.05054      0.05401        -0.015839     -0.002028      0.135502
O	      2.42898      2.05339     -2.05045         0.057614     -0.137612      0.119530
O	      2.33553      6.13147     -2.02768        -0.132900      0.130786     -0.002328
O	      1.99039      4.01869     -4.04678        -0.056683      0.133714     -0.114997
