# total energy = -101.99578983 eV
 
CRYSTAL
PRIMVEC
-0.000046 2.124087 2.123936 
4.007828 -2.386277 2.386075 
3.902075 7.064146 -7.063830 
PRIMCOORD
16 1
Li	      0.44697      0.07620     -0.07461         0.012425     -0.001413      0.001239
Li	      2.20960      1.68826      0.43716        -0.012870      0.003424     -0.002225
Li	      2.24432     -0.05823      2.18348        -0.001358      0.002976     -0.003550
Li	      5.49837      2.36294     -0.23827        -0.022427     -0.012908      0.013500
Ti	      3.48446      2.53648     -2.53515        -0.501611     -0.139154      0.135407
Ti	      6.04802      4.63412     -2.50853         0.370870      0.075635     -0.075755
Ni	      4.17443     -0.51721      0.51852         0.123365      0.072526     -0.071332
Ni	      3.86128      4.69460     -4.69305         0.013349      0.010972     -0.009546
O	      3.88334      4.66747     -2.54186         0.002573     -0.095649      0.094255
O	      3.60942      2.76988     -0.64488        -0.018048      0.192401     -0.189036
O	      5.74366      2.59022     -2.58864        -0.098680      0.040340     -0.040060
O	      4.33986     -0.33594      2.46120         0.006208     -0.151071      0.152166
O	      1.73565      2.80963     -2.80860         0.629237      0.000139     -0.000207
O	      3.84607      6.73691     -4.61119        -0.357558      0.127002     -0.127690
O	      2.31898     -0.22963      0.23096        -0.228953      0.038172     -0.038460
O	      5.92267      4.45373     -4.45210         0.083478     -0.163391      0.161293
