# total energy = -103.16404905 eV
 
CRYSTAL
PRIMVEC
0.000046 2.088151 2.087907 
8.401074 -0.011569 0.011778 
-0.011440 4.255018 -4.254498 
PRIMCOORD
16 1
Li	      8.25846      6.32275     -2.15014         0.006149     -0.001247      0.003685
Li	      2.22748      2.11423     -0.02171        -0.006095      0.002254     -0.005114
Li	      4.29453      4.09323      0.08267         0.014398     -0.001027      0.002055
Li	      6.19206      4.34452     -2.25612        -0.016305     -0.000229     -0.000140
Ti	      8.25622      4.19095     -0.01478        -0.349873     -0.031416      0.032367
Ti	      2.22970      4.24500     -2.15813         0.350259      0.029135     -0.028648
Ni	      4.25915      2.14190      2.03427        -0.067142     -0.079811      0.078403
Ni	      6.23807      2.04041      0.04744         0.067516      0.078593     -0.079264
O	      4.19420      2.07048      0.01769        -0.109905      0.130861     -0.132007
O	      6.42016      4.19087     -0.01491         0.394562      0.055728     -0.055551
O	      4.06568      4.24581     -2.15803        -0.394091     -0.054549      0.056079
O	      6.30300      2.11179      2.06412         0.111504     -0.133047      0.132863
O	      0.05786      2.22962     -0.14156         0.046282      0.093565     -0.093661
O	      2.02856      4.32760     -0.15202        -0.043407      0.054778     -0.054668
O	      0.05623      4.11995     -2.03218         0.042901     -0.052248      0.050714
O	      2.02690      6.21797     -2.04271        -0.046752     -0.091339      0.092886
