# total energy = -102.63430857 eV
 
CRYSTAL
PRIMVEC
0.000057 2.088650 2.088600 
8.342525 -0.010825 0.011057 
-0.010804 4.269695 -4.269603 
PRIMCOORD
16 1
Li	      8.27808      6.34454     -2.16745         0.021109     -0.003096      0.002238
Li	      2.31172      2.09256     -0.00648        -0.005784     -0.007866      0.009286
Li	      4.17285      4.04557      0.13059        -0.010726      0.014686     -0.014916
Li	      4.20976      2.26982      1.90623        -0.019559     -0.025644      0.024071
Ti	      8.28977      4.18199     -0.00548        -0.087422     -0.066438      0.067157
Ti	      2.28488      4.28677     -2.20130         0.606794      0.089332     -0.086609
Ni	      6.10333      4.29308     -2.20597        -0.028339     -0.038097      0.037898
Ni	      6.09700      2.03363      0.05370         0.135118      0.045058     -0.046015
O	      4.16814      2.11684     -0.02946        -0.187133     -0.007685      0.006790
O	      6.36956      4.25017     -0.07481         0.194825     -0.023398      0.023993
O	      4.06771      4.22429     -2.13898        -0.663067      0.019385     -0.019903
O	      6.30807      6.32914     -2.15328         0.014916      0.012058     -0.013525
O	      0.01283      2.22455     -0.13807         0.039623      0.127904     -0.127668
O	      1.96952      4.33234     -0.15761        -0.076792      0.046275     -0.046179
O	      0.01501      4.12254     -2.03636         0.053625     -0.066388      0.066734
O	      2.00711      6.22073     -2.04629         0.012808     -0.116086      0.116647
