# total energy = -103.65377124 eV
 
CRYSTAL
PRIMVEC
2.091887 4.078562 2.091926 
2.110904 -4.098126 2.111068 
4.232553 0.000098 -4.232772 
PRIMCOORD
16 1
Li	      0.08378      0.00077     -0.08212         0.024665     -0.000992     -0.025919
Li	      2.02149      2.04023      0.07149        -0.014745     -0.000604      0.014379
Li	      4.20705     -4.09774      0.01466        -0.004948      0.000651      0.004101
Li	      2.10290     -0.00945      2.10082         0.013577      0.001257     -0.013025
Ti	      4.11116     -0.00912      0.09144        -0.204724      0.001650      0.209622
Ti	      4.32256     -2.04831     -2.21151         0.151565     -0.002850     -0.153907
Ni	      6.34741     -2.05824     -0.03362         0.022675      0.001345     -0.021832
Ni	      2.11024     -2.04848      0.00106        -0.024246     -0.000880      0.022855
O	      4.24198     -1.98454     -0.10717        -0.004943      0.104394     -0.024132
O	      2.22423     -0.01300     -0.00852         0.232478      0.137503      0.014033
O	      4.30963      1.96643     -0.03920         0.024714     -0.106403      0.004753
O	      6.23190     -2.09796     -2.11774        -0.200231      0.009801     -0.014491
O	      4.21150     -0.00531      1.97856        -0.014639     -0.137650     -0.233411
O	      4.22177     -0.07768     -2.01683         0.002664     -0.179756      0.018859
O	      6.32063      2.07983     -2.02898         0.015447     -0.009566      0.200292
O	      6.21945      0.05950     -0.01907        -0.019309      0.182100     -0.002177
