# total energy = -101.12040439 eV
 
CRYSTAL
PRIMVEC
0.001252 0.006418 4.008140 
4.152418 0.002919 0.001139 
0.007187 8.706058 0.014450 
PRIMCOORD
16 1
Li	      0.01044      0.19984      0.00582         0.000813      0.009481      0.005424
Li	      2.08668      1.86898      4.00841        -0.002369     -0.022059     -0.001639
Li	      4.12327      4.09684      3.99667        -0.000543     -0.005972     -0.010029
Li	      2.08414      0.11391      2.00846        -0.007470      0.033858      0.002522
Ti	      1.98909      4.24091      1.91715        -0.018787     -0.465165     -0.099889
Ti	      4.15596      6.72663      2.03273        -0.017556      0.670883      0.020020
Ni	      2.09006      6.74798      0.02435        -0.002782     -0.092794      0.007203
Ni	      4.15416      2.01845      2.01416         0.006995     -0.044288      0.002682
O	      0.01630      8.50532      2.02327         0.001920     -0.664866      0.006685
O	      2.09238      2.41672      2.01106        -0.032890      0.430432     -0.021251
O	      2.09294      8.66357      0.01935        -0.006238      0.193464      0.002599
O	      0.05368      4.48076      2.01382         0.062914      0.042194     -0.014273
O	      2.10251      6.42337      2.03322         0.020029     -0.051931     -0.003602
O	      0.01126      2.16393      0.00748        -0.001867      0.032507      0.000774
O	      2.09235      4.51782      0.04126        -0.005816     -0.052599      0.110377
O	      0.01500      6.52269      0.02049         0.003648     -0.013145     -0.007604
