# total energy = -103.87385639 eV
 
CRYSTAL
PRIMVEC
2.083786 4.101444 2.083890 
2.113168 -4.130776 2.113237 
4.232444 -0.000082 -4.232715 
PRIMCOORD
16 1
Li	      0.11126     -0.00092     -0.11022         0.031118      0.001272     -0.033349
Li	      2.05329      2.05019      0.03301        -0.013713      0.000888      0.010660
Li	      4.14686      4.10058      0.02093        -0.001995      0.000457      0.001237
Li	      4.20457      2.03427      2.07748        -0.009100      0.002335      0.010397
Ti	      4.08515     -0.01534      0.11158        -0.228488     -0.003419      0.233936
Ti	      6.38205      2.03558     -0.10177         0.111820     -0.004123     -0.106626
Ni	      4.21434      2.04997     -2.13100         0.007474      0.000387     -0.009411
Ni	      2.10931     -0.01538      2.08774         0.042554     -0.000969     -0.040761
O	      4.25510     -1.98032     -0.12279        -0.111751      0.109585     -0.037126
O	      2.21295      0.01897      0.00706         0.267356     -0.010096     -0.088296
O	      4.31896      1.94946     -0.05854         0.036962     -0.107759      0.112584
O	      6.22615     -2.08408     -2.09291        -0.180128     -0.086987     -0.092793
O	      4.19016     -0.04987      1.98403         0.086149      0.011003     -0.270249
O	      4.23998     -0.07620     -2.03972        -0.100096     -0.154178      0.032365
O	      6.28942      2.05322     -2.02963         0.093534      0.086713      0.177840
O	      6.23599      0.04547     -0.04354        -0.031695      0.154891      0.099591
