# total energy = -100.75115330 eV
 
CRYSTAL
PRIMVEC
0.000032 0.006916 4.015997 
4.127498 -0.004272 0.000028 
-0.010010 8.723529 0.014633 
PRIMCOORD
16 1
Li	      4.12092      0.29821      0.00241         0.004508      0.006406      0.002528
Li	      2.06189      2.03716      4.01064        -0.006359     -0.012761     -0.001265
Li	      0.00732      4.01452      4.00815        -0.001943      0.014363     -0.004878
Li	      0.00210      2.15861      2.01202        -0.000651     -0.009234     -0.001076
Ti	      2.09649      4.16518      1.95343        -0.012996     -0.720473     -0.043272
Ti	     -0.00157      6.62658      2.04088         0.008972      0.384387      0.019389
Ni	      2.05518      6.67074      0.02395        -0.000592     -0.072304      0.008649
Ni	      2.06000      0.23941      2.00723        -0.004544      0.095907      0.002110
O	      4.10700      8.46171      2.02374         0.008969     -0.436028      0.002556
O	      2.06320      2.37780      2.00657         0.008305      0.641762     -0.019230
O	      2.04696      8.65043      0.01510         0.008089      0.130776      0.000398
O	      4.09202      4.52231      2.02184        -0.010032      0.027359     -0.008041
O	      2.04618      6.44539      2.03398        -0.005589     -0.050490     -0.006035
O	      4.12457      2.15715      4.01789         0.000373      0.030590      0.002798
O	      2.04797      4.48756      0.03555         0.009649     -0.035903      0.061589
O	      4.11786      6.49549      0.01980        -0.006157      0.005644     -0.016220
