# total energy = -90.72027017 eV
 
CRYSTAL
PRIMVEC
-0.000003 2.076152 2.075817 
4.039836 -0.000079 0.000078 
-0.000207 8.847292 -8.846928 
PRIMCOORD
16 1
Li	      2.02111      2.16439     -0.09223         0.000314      0.099927     -0.097338
Li	      0.00059      4.39134     -0.24293         0.001065      0.009704     -0.010336
Li	      2.02077      4.08962     -2.01685        -0.000530     -0.047235      0.045155
Li	      2.02176      8.93051     -6.85752        -0.003061     -0.021964      0.018752
Mn	      0.00161     10.89474     -6.74616        -0.001178      0.036709     -0.035490
Mn	      2.02034      6.61970     -4.54585         0.000371     -0.005887      0.005988
Ni	      0.00046      6.38682     -2.23739        -0.000005      0.078547     -0.078049
Ni	      0.00062      8.81126     -4.66172         0.000392     -0.027899      0.028132
O	      2.02045      8.60429     -4.45447         0.002312     -0.012347      0.011894
O	      0.00165      8.81266     -6.73959        -0.000927      0.144448     -0.143623
O	      2.02040      6.75124     -2.60133        -0.000607      0.062382     -0.065111
O	      0.00040      6.68021     -4.60618         0.000934     -0.058779      0.058933
O	      2.02047      4.22175     -0.07317         0.000946     -0.058955      0.059512
O	      0.00054      4.46488     -2.39137         0.000191     -0.121931      0.120589
O	      2.02152     10.82602     -6.67736        -0.000737     -0.014271      0.016194
O	      0.00153      1.86185      0.21019         0.000519     -0.062449      0.064798
