# total energy = -102.20388006 eV
 
CRYSTAL
PRIMVEC
0.000038 2.088343 2.088218 
8.505726 -0.002418 0.002632 
-0.002620 4.233097 -4.232708 
PRIMCOORD
16 1
Li	      0.27272      4.22829     -4.22509         0.013619     -0.002640      0.000250
Li	      2.19573      1.94280      0.14499        -0.005157      0.008197     -0.008234
Li	      3.99651      4.31314     -0.13653        -0.050391     -0.001465      0.000794
Li	      2.20835      4.38422     -2.29601        -0.015729     -0.014220      0.015721
Ti	      6.23504      2.08613      0.00187        -0.466493     -0.014774      0.014624
Ti	      0.22320      4.20869     -0.03303         0.823618      0.031230     -0.031420
Ni	      6.31845      4.20467     -2.11669         0.046895      0.003998     -0.004167
Ni	      4.07634      6.23499     -2.05861         0.037686      0.060412     -0.061139
O	      4.41952      2.07391      0.01377         0.506770      0.058372     -0.058173
O	      6.39330      4.10608      0.06994         0.034218     -0.138957      0.139773
O	      4.37345      4.23862     -2.15054        -0.122549     -0.110565      0.111783
O	      6.44650      2.16838      2.00766         0.033497      0.135525     -0.134744
O	      8.37885      2.21583     -0.12820        -0.015837      0.062026     -0.061484
O	      1.98383      4.21278     -0.03693        -0.784672      0.002153     -0.002528
O	      8.34535      4.09420     -2.00663         0.127292     -0.087418      0.087280
O	      2.13510      2.09594      2.08015        -0.162765      0.008125     -0.008335
