# total energy = -103.85133905 eV
 
CRYSTAL
PRIMVEC
2.046335 4.234336 2.046303 
2.082416 -4.271177 2.082356 
4.135839 0.000020 -4.135718 
PRIMCOORD
16 1
Li	      4.09619     -0.00021     -4.09418        -0.015285      0.001117      0.014122
Li	      2.05079      2.11506     -0.00278        -0.000421      0.003284      0.002596
Li	      2.08363      0.00026     -2.08136         0.001818     -0.001095     -0.004678
Li	      4.13486     -2.13467     -2.04996         0.004181     -0.000953     -0.005677
Ti	      1.99551     -2.13484      0.08934        -0.101377     -0.007383      0.094967
Ti	      4.19455     -0.01806     -0.06355         0.103183      0.002926     -0.089331
Ni	      4.13755      2.11731     -2.08898         0.010854      0.003692     -0.010022
Ni	      2.07077     -0.01810      2.06031        -0.004427      0.001627      0.008717
O	      4.07813     -2.00352      0.01444        -0.110189      0.092601      0.005130
O	      2.14665     -0.15349     -0.00886         0.048151     -0.100350     -0.110752
O	      4.11660      1.96763      0.05272        -0.005749     -0.094085      0.110052
O	      2.07518     -2.12750      2.00692        -0.002581     -0.073607     -0.234480
O	      4.14001      0.11804      1.98429         0.107835      0.100485     -0.049634
O	      4.14464      0.07743     -1.99164        -0.104474     -0.122930      0.161961
O	      2.12401      2.09146      2.05590         0.235474      0.072488      0.003302
O	      6.12303     -0.11371     -0.01345        -0.166995      0.122185      0.103727
