# total energy = -102.01883649 eV
 
CRYSTAL
PRIMVEC
-0.000068 0.010607 4.066231 
4.064289 -0.000034 -0.000056 
0.000225 8.806367 0.021265 
PRIMCOORD
16 1
Li	      4.06337      8.59050      4.07438        -0.000044      0.021185      0.002563
Li	      2.03100      1.93850      4.01093        -0.000093      0.000072      0.009322
Li	      4.06310      4.68660      0.06368         0.000408     -0.024914     -0.005172
Li	      4.06333      6.67349      2.05336        -0.000324      0.009054     -0.005760
Ti	      4.06349      2.14432      1.84688        -0.001132     -0.267071     -0.344174
Ti	      2.03128      4.50997      2.20218        -0.000347      0.278097      0.233492
Ni	      2.03108      6.72823      0.02952         0.000429     -0.084791     -0.011928
Ni	      2.03127      8.76946      2.05695         0.000154     -0.019404      0.002961
O	      4.06316      0.27879      2.03935         0.000827      0.292584     -0.020123
O	      2.03098      2.33841      2.01613        -0.000374      0.034731     -0.001533
O	      2.03125      8.75368      0.02189         0.000880      0.134054      0.004117
O	      4.06308      4.23650      2.06513        -0.000553     -0.010782      0.015148
O	      2.03106      6.37072      2.05021         0.000482     -0.303333      0.030081
O	      4.06321      2.23782      0.03337        -0.001047     -0.017561      0.336604
O	      2.03096      4.45701      4.04856         0.000691     -0.034492     -0.243813
O	      4.06326      6.61046      0.02195         0.000043     -0.007428     -0.001788
