# total energy = -102.86827452 eV
 
CRYSTAL
PRIMVEC
-0.000008 2.093594 2.093669 
8.260097 0.002009 -0.002043 
0.003402 4.323048 -4.323243 
PRIMCOORD
16 1
Li	      8.13155      0.03226     -0.02317         0.032220      0.019862     -0.020628
Li	      2.19438      2.10961     -0.00747        -0.032220     -0.021486      0.018891
Li	      4.28220      0.19514     -0.18835        -0.016108      0.012506     -0.013624
Li	      6.04404      1.94491      0.15548         0.015428     -0.014846      0.011660
Ti	      8.13722      2.11841     -2.11474        -0.302681     -0.129726      0.132692
Ti	      2.19195      4.34237     -2.24341         0.309294      0.129827     -0.129296
Ni	      4.19543      2.06060     -2.05409         0.023746      0.035922     -0.039364
Ni	      6.13390      4.40207     -2.30190        -0.025016     -0.038162      0.033695
O	      4.10256      2.17507     -0.07493         0.004567     -0.133854      0.131329
O	      6.29444      2.25007     -2.24408         0.403844     -0.069690      0.068756
O	      4.03495      4.21221     -2.11240        -0.406191      0.068058     -0.068313
O	      6.22684      4.28762     -4.28112        -0.003433      0.130939     -0.133513
O	      0.05756      2.27027     -0.17132        -0.010785      0.142553     -0.137945
O	      1.99025      2.29216     -2.28625        -0.081817      0.046787     -0.042703
O	      0.07889      4.16806     -2.06838         0.080341     -0.042725      0.046486
O	      2.01177      4.18953     -4.18366         0.008813     -0.135965      0.141878
