# total energy = -103.92181650 eV
 
CRYSTAL
PRIMVEC
2.092319 4.075843 2.092560 
2.094078 -4.077921 2.094172 
4.285451 -0.000141 -4.285712 
PRIMCOORD
16 1
Li	      4.29121     -0.00239      4.08023         0.026028     -0.000310     -0.027655
Li	      4.10455     -2.04058      2.17259        -0.028274      0.001564      0.028970
Li	      2.11295     -0.00079      2.07170         0.010887     -0.001070     -0.012841
Li	      4.18695      2.03642      2.08828        -0.010859      0.002574      0.011325
Ti	      4.10506     -0.00134      0.07905        -0.257164      0.000526      0.252253
Ti	      6.48117      2.03652     -0.20419         0.254232      0.002403     -0.255876
Ni	      6.30383     -0.00242      2.06673        -0.046218     -0.000021      0.047361
Ni	      6.37666     -2.04017     -0.09817         0.045448     -0.001091     -0.046419
O	      4.28363     -1.97431     -0.14949        -0.100566      0.172126     -0.022006
O	      2.23461      0.02293     -0.05616         0.269784     -0.003503      0.104324
O	      4.33333      1.97169     -0.09941         0.023612     -0.172952      0.100773
O	      6.25894     -2.06349     -2.16204        -0.267225      0.002750     -0.101551
O	      4.23990     -0.02564      1.94927        -0.101698      0.003591     -0.267883
O	      4.21010     -0.06619     -2.06842         0.101629     -0.172533      0.023532
O	      6.34624      2.06089     -2.07450         0.101789     -0.004376      0.266854
O	      6.25232      0.06372     -0.02601        -0.021407      0.170322     -0.101159
