# total energy = -100.71213870 eV
 
CRYSTAL
PRIMVEC
-0.000043 -0.000090 4.074014 
4.129693 -0.000260 -0.000044 
0.000410 8.795638 0.000145 
PRIMCOORD
16 1
Li	      4.12874      0.31980      0.00318        -0.000942      0.049196     -0.000232
Li	      2.06386      1.88337      0.00299        -0.000837     -0.043110      0.000116
Li	      2.06375      0.17246      2.04000        -0.000629      0.032247      0.001033
Li	      4.12841      2.03052      2.04004         0.000485     -0.030643     -0.000475
Ti	      2.06341      4.20925      2.03886         0.001147     -0.979085      0.001871
Ti	      4.12863      6.78913      2.04050         0.000807      0.971144     -0.000976
Ni	      4.12842      4.14921      0.00271         0.000829      0.051726     -0.000142
Ni	      2.06395      6.85038      0.00333        -0.000271     -0.055138      0.000174
O	      4.12888      8.53476      2.04028        -0.000858     -0.888109     -0.001767
O	      2.06361      2.46325      2.03983         0.000461      0.897335      0.000537
O	      2.06406      8.76383      0.00327        -0.000263      0.155232      0.001504
O	      4.12853      4.52404      2.03977         0.000485      0.072415     -0.002286
O	      2.06388      6.47476      2.04027        -0.000728     -0.074015      0.000689
O	      4.12849      2.23564      0.00290         0.000308     -0.158056      0.000110
O	      2.06363      4.52555      0.00291         0.001427      0.017165     -0.001403
O	      4.12875      6.47340      0.00312        -0.001420     -0.018304      0.001247
