# total energy = -101.53689521 eV
 
CRYSTAL
PRIMVEC
0.000025 -0.011800 4.076754 
4.099344 -0.000115 0.000025 
0.000197 8.825979 -0.024037 
PRIMCOORD
16 1
Li	      4.09844      8.64211     -0.01897         0.000526      0.002951      0.005880
Li	      2.04842      1.79179      0.02572        -0.000474     -0.026890      0.014658
Li	      2.04866      8.78294      2.00789         0.001335      0.005506      0.007572
Li	      4.09835      6.81959      2.00820        -0.000506      0.044018      0.007852
Ti	      4.09792      2.05288      2.12286         0.000796     -0.852281      0.027276
Ti	      2.04808      4.49300      2.04463         0.001186      0.403283      0.001352
Ni	      4.09820      4.54060      4.05578         0.000076     -0.075526      0.000637
Ni	      2.04882      6.80166      4.05047        -0.000628     -0.016976     -0.009548
O	      4.09819      0.28934      2.03749        -0.000960      0.722658      0.033254
O	      2.04873      2.40391      2.01218        -0.000258      0.043667      0.017544
O	      2.04879      8.73666      4.05016         0.000202      0.203910     -0.008552
O	      4.09840      4.28920      2.00842        -0.000405     -0.022907      0.010605
O	      2.04882      6.32212      2.00432         0.000298     -0.451103      0.012975
O	      4.09828      2.35971      4.03093        -0.000350     -0.043815     -0.090203
O	      2.04859      4.45679      4.03817         0.000174     -0.045167     -0.029639
O	      4.09846      6.52658      4.04918        -0.001012      0.108672     -0.001661
