# total energy = -101.43393489 eV
 
CRYSTAL
PRIMVEC
0.000037 2.095405 2.095576 
8.495472 0.018480 -0.018388 
0.017973 4.229771 -4.230077 
PRIMCOORD
16 1
Li	      0.23151      4.05451     -4.05282         0.048680      0.008604     -0.009220
Li	      1.91608      2.28506     -0.18921        -0.047260     -0.008097      0.008846
Li	      0.25948      2.28617     -2.28495         0.034958     -0.022790      0.020945
Li	      1.88804      4.05346     -1.95688        -0.033332      0.021175     -0.021669
Ti	      4.02892      4.23208     -4.23227        -0.966366      0.005058     -0.004611
Ti	      6.61446      2.12440     -0.02880         0.955686     -0.003116      0.003222
Ni	      4.10251      2.11977     -2.11975         0.084098      0.011866     -0.009567
Ni	      6.54055      4.23723     -2.14096        -0.084504     -0.013191      0.011099
O	      4.30782      2.00591      0.08979         0.026405     -0.116927      0.116528
O	      6.20386      2.03782     -2.03760         0.045899     -0.105619      0.106021
O	      4.43924      4.31878     -2.22341        -0.046022      0.106592     -0.106217
O	      6.31742      0.12097     -0.12077        -0.027368      0.117692     -0.116511
O	      8.35722      2.14193     -0.04687        -0.910918     -0.001577      0.002769
O	      2.21436      2.11842     -2.11782        -0.198139      0.004079     -0.004194
O	      8.42861      4.23945     -2.14253         0.199101     -0.005903      0.003963
O	      2.28582      4.21453     -4.21476         0.919080      0.002154     -0.001404
