# total energy = -91.81599761 eV
 
CRYSTAL
PRIMVEC
-0.000685 2.089074 2.089122 
6.093782 -0.003357 -2.088378 
-2.059784 6.341534 -4.249383 
PRIMCOORD
16 1
Li	      2.09255      2.12363     -0.04711         0.004511     -0.011609      0.017126
Li	      3.98661      1.97436     -1.98228         0.001674     -0.008655      0.012872
Li	      0.05388      4.22990     -0.04929        -0.027420     -0.002660      0.006463
Li	      1.88543      6.44763     -4.36301         0.002211      0.007490     -0.004004
Mn	      6.04775      2.13307     -0.04994        -0.040007      0.029167     -0.016005
Mn	      4.05012      4.20660     -4.20094         0.006957     -0.029410      0.007195
Ni	      2.01235      4.15049     -2.05658        -0.003831     -0.034504      0.030132
Ni	      0.03772      6.36239     -2.18002         0.050341      0.016579     -0.014716
O	     -0.11441      4.29120     -2.19698        -0.079467     -0.088354      0.090128
O	      0.00825      1.95978      0.12724        -0.012862     -0.036017      0.024719
O	      4.01504      6.31816     -4.22727        -0.084315      0.063689     -0.067112
O	      4.10226      4.35996     -2.26513         0.068010     -0.007679      0.007611
O	     -0.13248      6.29500     -4.20187        -0.069256      0.097798     -0.107319
O	      4.19962      2.08101     -0.00015         0.054463      0.002285      0.012023
O	      2.09766      6.20334     -2.01973         0.114203      0.082726     -0.078258
O	      2.01092      2.18000     -2.17613         0.014789     -0.080845      0.079146
