# total energy = -103.90598328 eV
 
CRYSTAL
PRIMVEC
2.038134 4.313446 2.038017 
2.045578 -4.321184 2.045259 
4.096066 -0.000082 -4.095659 
PRIMCOORD
16 1
Li	      6.12302      4.30934     -2.04967        -0.009298      0.001023      0.010646
Li	      4.09776     -2.16620      2.02932         0.008306     -0.000470     -0.010632
Li	      4.08442     -0.00373     -0.00380         0.006577     -0.002391     -0.007192
Li	      6.13571      2.15228     -0.01754        -0.006525     -0.001884      0.008894
Ti	      6.06873     -0.00629     -1.98764        -0.117114      0.000291      0.118020
Ti	      4.15266      2.14992      1.96778         0.115785      0.002527     -0.115267
Ni	      6.14256     -0.01093      2.02155         0.009826     -0.000557     -0.008999
Ni	      6.12302     -2.16769      0.00279        -0.008717      0.000512      0.009538
O	      4.03189     -2.26411     -0.00389        -0.244373      0.121793      0.001491
O	      2.03355     -0.17670      0.05286        -0.003592     -0.066056      0.122709
O	      4.08485      2.24991      0.04946        -0.001703     -0.121183      0.241873
O	      2.05276     -1.99346      1.98403         0.003463      0.065222     -0.122839
O	      4.02790      0.16317      2.04749        -0.122809      0.063423      0.002013
O	      4.15049      0.09305     -2.05466         0.244898     -0.119687     -0.002411
O	      2.09619      1.98013      2.02779         0.123407     -0.065691     -0.002813
O	      6.13542     -0.10754     -0.06973         0.001871      0.123128     -0.245031
