# total energy = -102.67579375 eV
 
CRYSTAL
PRIMVEC
0.000065 0.000096 4.108192 
4.051781 0.000140 -0.000078 
-0.000293 8.861913 0.000424 
PRIMCOORD
16 1
Li	      4.05142      8.54727      4.06418         0.000296     -0.027374     -0.013000
Li	      2.02579      2.52932      4.06403         0.000016      0.024458     -0.013975
Li	      2.02580      4.53877      2.08327        -0.000346     -0.016893     -0.011851
Li	     -0.00018      6.53711      2.08318        -0.000230      0.016668     -0.013501
Ti	      2.02560      8.77803      1.91399        -0.000367     -0.317656     -0.177546
Ti	      4.05159      2.29735      1.91345         0.000348      0.324071     -0.174865
Ni	      4.05158      4.53445      0.01855         0.000680     -0.059597      0.037846
Ni	      2.02567      6.54198      0.01890        -0.001248      0.061234      0.038018
O	      4.05175      0.18772      2.07181        -0.000332      0.013517     -0.007803
O	      2.02577      2.02604      2.07190         0.000249     -0.016113     -0.012685
O	      2.02553      8.78904      0.06230         0.000019      0.071731      0.240447
O	      4.05162      4.14364      2.09598         0.000195     -0.338565     -0.062963
O	      2.02561      6.93172      2.09640         0.000216      0.337677     -0.065648
O	      4.05159      2.28705      0.06211         0.000217     -0.076408      0.235759
O	      2.02576      4.51109      0.02729        -0.001128     -0.146568      0.001054
O	      4.05145      6.56515      0.02736         0.001414      0.149819      0.000714
