# total energy = -103.07966375 eV
 
CRYSTAL
PRIMVEC
2.100662 4.041944 2.100794 
2.107471 -4.048759 2.107590 
4.228561 -0.000003 -4.228837 
PRIMCOORD
16 1
Li	      2.14195     -4.04844      2.07287         0.007767     -0.000662     -0.008044
Li	      2.13101      2.02162     -0.02944        -0.007543      0.000461      0.007600
Li	      2.08050      0.00046     -2.07963        -0.010558     -0.000777      0.008095
Li	      2.12867     -0.00294      2.08009         0.008385      0.000272     -0.006758
Ti	      2.02646     -2.02361      0.08171        -0.075824     -0.011599      0.071309
Ti	      4.18652     -2.02389     -2.07811        -0.012107     -0.003201      0.005468
Ni	      4.25276      2.02124     -2.15176         0.023884      0.001587     -0.020460
Ni	      4.20449     -0.00309      0.00429        -0.025551      0.002221      0.032516
O	      4.19857     -2.03871     -0.09736        -0.099683     -0.128415     -0.098705
O	      2.15481     -0.12371     -0.00996        -0.128031     -0.163925      0.005134
O	      4.30603      2.03265      0.01041         0.101849      0.128345      0.100328
O	      6.24252     -2.04845     -2.18699        -0.055270      0.009639     -0.185618
O	      4.21891      0.11725      2.05450        -0.005144      0.173078      0.125327
O	      4.23478     -0.06598     -2.08470        -0.006471     -0.200460     -0.099376
O	      6.39554      2.04243     -2.03395         0.187919     -0.008968      0.057006
O	      6.29363      0.05986     -0.02592         0.096378      0.202402      0.006177
