# total energy = -102.00866785 eV
 
CRYSTAL
PRIMVEC
-0.001339 0.000474 3.942369 
6.270966 -0.037512 0.003185 
-0.039817 6.990919 -0.001152 
PRIMCOORD
16 1
Li	      0.68306      0.00483      0.00124        -0.008262      0.001481     -0.000415
Li	      3.52176      1.67428      0.00288        -0.012870     -0.000483      0.000318
Li	      0.62971      3.47708      0.00074         0.002223     -0.007327      0.000142
Li	      2.69745      0.12121      1.97406         0.001316      0.017432     -0.000576
Ti	      5.70021      1.71724      1.97453        -0.387353     -0.047633     -0.003464
Ti	      5.66839      5.16446      1.96502        -0.112376      0.098052     -0.012148
Ni	      3.32482      5.33520      0.00171         0.110450     -0.038976      0.002064
Ni	      2.63909      3.39553      1.97344        -0.076950     -0.052838      0.000951
O	      0.12506      6.94420      1.97234        -0.130281     -0.081785      0.001191
O	      3.89330      1.82382      1.97438         0.576423     -0.103740      0.001545
O	      2.55611      0.02668      0.00291        -0.124111      0.241080     -0.000870
O	      0.37607      3.49256      1.97275        -0.180116      0.039905      0.005198
O	      3.79711      5.13408      1.97398         0.374973      0.048758     -0.003134
O	      5.88174      1.71376      0.00518         0.003455      0.001213     -0.001780
O	      2.56008      3.51462      0.00227        -0.066383     -0.116135     -0.001013
O	      5.75474      5.11638      0.00545         0.029861      0.000997      0.011991
