# total energy = -103.62782980 eV
 
CRYSTAL
PRIMVEC
-0.000055 2.087703 2.087689 
8.371961 -0.000137 -0.000058 
-0.000034 4.203855 -4.203871 
PRIMCOORD
16 1
Li	      0.07248      6.28960     -2.11761         0.048532      0.002905      0.002438
Li	      2.09108      2.09444     -0.00715         0.000565      0.000213     -0.000379
Li	      4.11053      2.10196     -2.10106        -0.046079     -0.000423     -0.001283
Li	      2.09115      4.19599     -2.10869         0.000751      0.000396     -0.000828
Ti	      4.03114      6.29106     -2.11594        -0.531383     -0.001102     -0.000105
Ti	      0.15088      4.18935     -0.01400         0.528101     -0.001020      0.001407
Ni	      6.27721      4.19650     -2.10932        -0.000353     -0.005637      0.005697
Ni	      6.27728      2.09398     -0.00672        -0.000265      0.004821     -0.005369
O	      4.19767      2.00555      0.08167        -0.101596     -0.088041      0.087550
O	      6.35337      4.18916     -0.01417         0.022827     -0.000965      0.000425
O	      4.19764      4.28471     -2.19755        -0.101734      0.089175     -0.088816
O	      6.20073      6.29089     -2.11613        -0.021251      0.001187     -0.000301
O	      8.35672      2.18323     -0.09595         0.099562      0.080183     -0.080190
O	      1.96828      2.10163     -2.10145        -0.464765     -0.001453     -0.000491
O	      8.35654      4.10715     -2.01989         0.102307     -0.079862      0.079192
O	      2.21383      6.29081     -2.11623         0.464780     -0.000376      0.001053
