# total energy = -103.41142830 eV
 
CRYSTAL
PRIMVEC
2.085249 4.192484 2.085006 
2.085569 -4.192844 2.085391 
4.178769 0.000034 -4.178354 
PRIMCOORD
16 1
Li	      8.34606     -0.00311     -0.01143         0.001177      0.004099      0.001934
Li	      4.17047     -2.09651      2.08216         0.001363     -0.002002      0.002006
Li	      4.17519     -4.19050     -0.00356        -0.004899     -0.003988      0.002559
Li	      6.25977      2.09527     -0.00708         0.001143      0.001870      0.001881
Ti	      2.08253     -0.00052      2.08002         0.012746     -0.003551     -0.015849
Ti	      4.17756     -0.00085     -0.00502        -0.015572      0.002715      0.012263
Ni	      6.25999     -2.09689     -0.00631        -0.002439     -0.000620     -0.001935
Ni	      4.17005      2.09547      2.08226         0.000822      0.004384      0.001230
O	      4.17221     -1.95218     -0.00401        -0.001456      0.132141     -0.003729
O	      2.15871     -0.03714      0.07184         0.070696      0.135183      0.075090
O	      4.17197      1.95024     -0.00479         0.003556     -0.132466      0.001858
O	      6.26173     -1.95186     -2.09296        -0.002798      0.139459     -0.004101
O	      4.09551      0.03619      2.00881        -0.070813     -0.139291     -0.070966
O	      4.24823      0.03646     -2.01691         0.071845     -0.144476      0.064592
O	      6.26129      1.95119     -2.09391         0.002513     -0.136831      0.002726
O	      6.18488     -0.03746     -0.08015        -0.067885      0.143375     -0.069559
