# total energy = -101.58700152 eV
 
CRYSTAL
PRIMVEC
0.000311 -0.003172 3.799913 
3.805765 0.001549 -0.000115 
0.006187 11.986997 -0.006749 
PRIMCOORD
16 1
Li	      0.00607     11.39153     -0.00532         0.001372      0.070704      0.000230
Li	      1.90445      3.06659      3.79806        -0.000280      0.007730     -0.003050
Li	      0.00311      5.39598      3.79549        -0.001986      0.065640      0.001356
Li	      3.81048      9.05438      1.89460         0.001171     -0.004459      0.002139
Ti	      1.90402      0.50248      1.89884        -0.000520      0.100486     -0.000220
Ti	      1.90738      6.49939      1.89495         0.000718      0.100442     -0.000303
Ni	      1.90911      9.05485     -0.00489        -0.025410     -0.070399      0.002954
Ni	      3.80693      3.04786      1.89389        -0.002626     -0.065565      0.066952
O	      0.00074      0.17256      1.90396        -0.005222     -0.139113     -0.006010
O	      1.90418      2.35036      1.90016        -0.000284     -0.146652     -0.011074
O	      1.90872     11.94834     -0.00414         0.004282      0.228457      0.005203
O	      3.80768      5.96690      1.89590        -0.000056      0.224707      0.001094
O	      1.90699      8.34772      1.89483         0.002641     -0.148641      0.000410
O	      3.80658      3.48144     -0.00040         0.001024     -0.036370     -0.057660
O	      1.90436      6.15714      3.79574         0.002634     -0.139727     -0.002762
O	      3.80982      9.47765     -0.00487         0.022542     -0.047241      0.000741
