# total energy = -102.15213988 eV
 
CRYSTAL
PRIMVEC
0.000474 2.090173 2.090312 
8.149327 0.000840 0.000656 
-0.000181 4.356663 -4.356648 
PRIMCOORD
16 1
Li	      8.14579      2.36150      1.81812        -0.000962     -0.014540      0.031165
Li	      1.88999      2.14145     -0.03650         0.001562     -0.006832     -0.006567
Li	      6.26630      2.13218     -0.04572        -0.012611      0.001495      0.001101
Li	      8.14575      3.99586      0.18374        -0.000927      0.031456     -0.014491
Ti	      6.23035      4.31785     -2.21662         0.256719      0.001256      0.001705
Ti	      1.85715      4.31233     -2.22214        -0.303663     -0.002334     -0.001568
Ni	      4.07394      4.20504     -0.02384         0.004882     -0.010927      0.011553
Ni	      4.07405      2.15402      2.02719         0.004726      0.010067     -0.010074
O	      4.07198      2.13446     -0.04330         0.001396      0.000648     -0.000146
O	      6.10122      4.42107     -0.24159         0.111017      0.091861     -0.099739
O	      4.10509      4.31099     -2.22346        -0.018392      0.008315      0.008410
O	      6.10113      6.29257     -2.11344         0.110916     -0.097423      0.093536
O	      0.00283      2.13371     -0.04384         0.016786     -0.006728     -0.007770
O	      2.05731      2.33733     -2.33585        -0.135185      0.097279     -0.106946
O	      8.14323      4.31303     -2.22162         0.098160      0.002132      0.002441
O	      2.05720      4.19852     -4.19713        -0.134423     -0.105725      0.097390
