# total energy = -102.42738559 eV
 
CRYSTAL
PRIMVEC
2.091718 4.071121 2.091646 
2.091533 -4.071003 2.091605 
4.361215 0.000083 -4.361219 
PRIMCOORD
16 1
Li	      2.27682     -4.05618      1.90361        -0.010253     -0.014523      0.009694
Li	      2.13388      2.01970     -0.04521        -0.000447      0.006047     -0.002069
Li	      4.22662      2.01983      2.04519         0.000303      0.005997      0.001840
Li	      4.08396      0.01504      0.09664         0.009647     -0.017823     -0.010594
Ti	      6.40722     -1.91119     -0.13399        -0.011466      0.206891     -0.011438
Ti	      4.31545     -1.91126     -2.22648         0.010755      0.205974      0.009139
Ni	      4.12964      4.06754      0.05059         0.034839     -0.004500     -0.033334
Ni	      2.23088     -0.00339      1.94925        -0.033725     -0.011907      0.035016
O	      4.42490     -2.08349     -0.24474         0.102617      0.133783     -0.103650
O	      2.13467     -0.01743     -0.04586         0.000176      0.003580     -0.000077
O	      4.42001      2.03031     -0.23953         0.093055     -0.098910     -0.094062
O	      6.30224     -2.04074     -2.12182        -0.098229     -0.097297      0.097237
O	      4.22598     -0.01743      2.04597         0.002831      0.004557      0.000496
O	      4.31515     -0.05071     -2.22655         0.000586     -0.228042      0.000385
O	      6.29694      1.98762     -2.11668        -0.101728      0.134981      0.100612
O	      6.40662     -0.05058     -0.13479         0.001038     -0.228811      0.000805
