# total energy = -99.95843906 eV
 
CRYSTAL
PRIMVEC
-0.000006 -0.000099 4.161538 
4.160934 0.000050 -0.000003 
-0.000076 8.596908 -0.000174 
PRIMCOORD
16 1
Li	      0.00085      0.30824      4.15978         0.000193      0.008638      0.003258
Li	      2.08137      2.14743      0.00038         0.000336      0.003105     -0.000281
Li	      0.00101      2.15030      2.08008        -0.001420     -0.001355      0.001710
Li	      2.08150      3.98963      2.08330        -0.000393     -0.008418     -0.003886
Ti	      2.08114      6.44795      0.00212        -0.000771     -0.004511     -0.004044
Ti	      0.00070      6.44741      2.08250        -0.001080     -0.005545     -0.001638
Ni	      0.00087      4.13014      0.00057         0.000024      0.004600     -0.000002
Ni	      2.08133      0.16782      2.08071         0.000174     -0.003301      0.000687
O	      0.00087      8.34661      2.08105         0.000472     -0.205632     -0.000075
O	      2.08144      2.08706      2.08067        -0.000355      0.215243      0.000414
O	      2.08131      8.34743      4.16135         0.000498     -0.208337     -0.000055
O	      0.00093      4.54751      2.08118         0.000643      0.212429      0.000548
O	      2.08111      6.51791      2.08175         0.001388     -0.076186      0.001507
O	      0.00094      2.21079      4.16124        -0.000409     -0.216073      0.000439
O	      2.08141      4.54835      4.16139        -0.000176      0.208962      0.001302
O	      0.00066      6.37738      0.00124         0.000876      0.076382      0.000114
