# total energy = -91.07172319 eV
 
CRYSTAL
PRIMVEC
-0.000189 2.118024 2.117758 
6.057980 6.377439 -4.259275 
-4.034794 2.124725 -2.124284 
PRIMCOORD
16 1
Li	     -1.91335      4.36255     -2.24696         0.011810      0.001785     -0.002131
Li	      0.00885      6.53320     -2.29556         0.002455      0.015658     -0.019323
Li	      1.96168      6.23711     -4.12329        -0.045171     -0.000803      0.009519
Li	      3.97781      6.28913     -2.05318         0.016802     -0.021571      0.022718
Mn	      2.05183      8.46935     -6.34951        -0.050866     -0.031785      0.028335
Mn	      0.01253      4.26675     -0.03232         0.043324      0.026186     -0.022122
Ni	      4.03489      8.45431     -4.21675        -0.028195     -0.015276      0.013414
Ni	      2.02426      4.29657     -2.17968        -0.051545     -0.003070      0.005482
O	      4.20614      6.43076     -4.31146         0.079315     -0.082370      0.088571
O	     -0.15677      6.37700     -4.25722         0.259468     -0.013049      0.002497
O	      2.03900      8.61024     -4.37327        -0.108611      0.046254     -0.045145
O	     -1.98178      4.19344      0.04463        -0.009980      0.059922     -0.065899
O	      0.04228      4.12257     -2.00930        -0.152681     -0.038155      0.040253
O	      1.96445      6.28904     -2.05405        -0.004680      0.136328     -0.131849
O	      0.06356      2.12679     -0.00454         0.090620      0.003969     -0.005952
O	      1.89769      4.29799     -0.06364        -0.052066     -0.084023      0.081631
