# total energy = -102.28356259 eV
 
CRYSTAL
PRIMVEC
0.000034 2.087025 2.086941 
8.454735 0.001050 -0.000853 
0.000809 4.241312 -4.241109 
PRIMCOORD
16 1
Li	      0.16731      0.02157     -0.01860        -0.002829      0.009158     -0.010249
Li	      2.31143      1.95537      0.13086         0.038856      0.004065     -0.005199
Li	      4.10455      4.33571     -0.16304        -0.022546     -0.033678      0.033855
Li	      4.08077      6.20099     -2.02806         0.005028      0.027366     -0.028445
Ti	      6.12634      2.07841      0.00755        -0.807752     -0.047614      0.045659
Ti	      0.16930      4.19924     -0.02728         0.478649     -0.011804      0.011190
Ni	      6.21809      4.24189     -2.15685         0.062644      0.009147     -0.006126
Ni	      2.27757      4.34309     -2.25712        -0.025665     -0.076229      0.075848
O	      4.36868      2.10453     -0.01934         0.763478     -0.005185      0.007648
O	      6.38858      4.10765      0.06456         0.023854     -0.100200      0.100958
O	      4.29412      4.20626     -2.12049        -0.085467      0.010260     -0.010422
O	      6.42115      2.17398      1.99845        -0.006564      0.142133     -0.141755
O	      8.38827      2.22786     -0.14270        -0.015390      0.101983     -0.103141
O	      1.97894      4.27772     -0.10580        -0.482969     -0.074683      0.077409
O	      8.27735      4.10310     -2.01815         0.090123     -0.081314      0.079527
O	      2.08426      6.31428     -2.14120        -0.013451      0.126597     -0.126757
