# total energy = -103.70135602 eV
 
CRYSTAL
PRIMVEC
2.067920 4.178651 2.068157 
2.093542 -4.204573 2.093334 
4.156195 -0.000214 -4.156230 
PRIMCOORD
16 1
Li	      6.20855      4.17655     -2.07372        -0.010108      0.000466      0.007086
Li	      2.05830      2.08708      0.00789        -0.005715      0.002299      0.008256
Li	      4.15056      4.17531     -0.01629        -0.008674      0.002978      0.005863
Li	      2.08163     -0.01385      2.07697         0.012762      0.000642     -0.006150
Ti	      4.05089      2.07462      2.17850        -0.141999     -0.010912      0.131397
Ti	      4.19927     -0.01416     -0.04074         0.054593      0.003609     -0.033259
Ni	      6.28857     -2.11624     -0.03453         0.025465      0.001208     -0.023732
Ni	      6.23544      2.07428     -0.00621         0.009450     -0.000690     -0.015608
O	      4.12776     -2.02034     -0.00323        -0.109467      0.087565      0.122396
O	      2.18884     -0.16394     -0.00531         0.071697     -0.121051     -0.006920
O	      4.16400      1.99236      0.03291        -0.123492     -0.092651      0.106290
O	      2.07556     -2.15362      2.02217         0.100344      0.026282     -0.273780
O	      4.16588      0.13529      1.97175         0.005252      0.128284     -0.074129
O	      4.15561      0.03376     -1.97807         0.008049     -0.063012      0.159116
O	      2.13856      2.12483      2.08543         0.275952     -0.024608     -0.099689
O	      6.13813     -0.06211      0.00431        -0.164108      0.059592     -0.007137
