# total energy = -101.84180953 eV
 
CRYSTAL
PRIMVEC
0.001766 -0.009833 4.068194 
4.109127 0.000916 0.001922 
0.001988 8.685015 -0.021699 
PRIMCOORD
16 1
Li	      0.00813      8.62719      0.00762         0.001048      0.016003     -0.000236
Li	      2.05909      1.78844      0.04564         0.000522      0.007491     -0.002478
Li	      4.09245      4.47098      4.00017        -0.006527     -0.002891      0.010391
Li	      2.06237      8.66972      2.02740        -0.005022      0.025024     -0.007919
Ti	      4.10616      1.99914      2.18769        -0.012261     -0.496327      0.234482
Ti	      1.97776      4.34434      1.83842        -0.031940      0.072892     -0.297743
Ni	      2.06287      6.70140     -0.01360         0.002744     -0.097510      0.010328
Ni	      0.00611      6.74733      2.02599         0.009268      0.034440      0.003117
O	      0.00636      0.19192      2.04873         0.001064      0.491712      0.025162
O	      2.07009      2.33854      2.03779         0.004268      0.061198      0.005227
O	      2.06201      8.63274     -0.00306         0.000663      0.179073     -0.003712
O	      0.03528      4.21023      1.98712         0.063870     -0.011928     -0.009704
O	      2.07174      6.29177      2.03534        -0.009769     -0.187038     -0.022229
O	      0.00652      2.17130      4.02036         0.000600     -0.014860     -0.257316
O	      2.05656      4.39125      0.01178        -0.017989     -0.041950      0.309370
O	      0.00805      6.50388     -0.01133        -0.000540     -0.035330      0.003262
