# total energy = -103.54685563 eV
 
CRYSTAL
PRIMVEC
0.000008 2.099388 2.100241 
8.314129 -0.000016 0.000049 
-0.000024 4.209617 -4.211207 
PRIMCOORD
16 1
Li	      0.00013      6.30284     -2.10512         0.001139      0.007234     -0.011452
Li	      2.07903      2.10125     -0.00350        -0.001216      0.001125     -0.000964
Li	      4.15748      4.20683     -0.01702        -0.000091     -0.006530      0.011734
Li	      6.23610      2.10096     -0.00607        -0.000661      0.001125      0.003440
Ti	      4.15791      2.14724      2.04848        -0.002840      0.099613     -0.099316
Ti	      0.00056      2.05837     -2.05550         0.004074     -0.100941      0.102831
Ni	      6.23631      4.20557     -2.11090        -0.002688      0.000240     -0.002204
Ni	      2.07933      4.20536     -2.11033         0.001212      0.001086     -0.004372
O	      4.15765      2.01113      0.08554         0.001472     -0.093869      0.097028
O	      6.36257      4.23721     -0.04361         0.138803     -0.104392      0.106665
O	      4.15783      4.28724     -2.19216         0.000745      0.048999     -0.052361
O	      6.10969      6.27318     -2.07832        -0.133090      0.105227     -0.104206
O	      0.00044      2.19121     -0.09566         0.000610      0.094703     -0.101508
O	      1.95288      4.23705     -0.04322        -0.140987     -0.103924      0.106667
O	      0.00076      4.12369     -2.03057        -0.001439     -0.053860      0.052962
O	      2.20586      6.27310     -2.07788         0.134957      0.104164     -0.104943
