# total energy = -103.53426502 eV
 
CRYSTAL
PRIMVEC
2.107179 4.158894 2.106578 
2.106530 -4.158872 2.107147 
4.198345 0.000613 -4.198398 
PRIMCOORD
16 1
Li	      4.23169      0.00215      4.18720         0.022112     -0.000613     -0.017610
Li	      2.10740      2.08126      0.00326        -0.005207     -0.002444     -0.001011
Li	      2.08675      0.00099     -2.08006        -0.023134      0.000523      0.021832
Li	      4.20876      2.07817      2.11065         0.005897      0.005526     -0.002692
Ti	      2.13324     -0.00060      2.06997         0.094784     -0.001326     -0.094326
Ti	      4.17918      0.00074      0.04259        -0.094738     -0.007363      0.095401
Ni	      4.20415      2.08057     -2.09619        -0.003025     -0.001830     -0.005078
Ni	      4.20292     -2.07918     -2.09582         0.002201      0.003177     -0.001633
O	      4.24464     -1.95317     -0.03076        -0.102210      0.129103      0.102114
O	      2.20504      0.00049      0.10278         0.106538     -0.000843      0.117884
O	      4.24371      1.95498     -0.03022        -0.097755     -0.130619      0.097822
O	      6.26993     -1.95399     -2.05556         0.094639      0.132257     -0.099575
O	      4.10921      0.00030      2.00843        -0.103135      0.000073     -0.109777
O	      4.27651      0.00069     -2.02434         0.044459     -0.000392      0.040717
O	      6.26970      1.95421     -2.05463         0.099837     -0.124978     -0.105841
O	      6.23647      0.00065     -0.06287        -0.041262     -0.000253     -0.038227
