# total energy = -99.80974203 eV
 
CRYSTAL
PRIMVEC
0.000025 2.080317 2.080323 
8.544382 0.000315 -0.000053 
0.000313 4.206117 -4.206132 
PRIMCOORD
16 1
Li	      0.27134      0.00493      0.00102         0.006322     -0.002553     -0.001800
Li	      2.13618      2.07096      0.00993         0.000180     -0.006104      0.004722
Li	      3.99823      2.08083      2.07677        -0.004412      0.000284      0.003323
Li	      2.13388      4.21914     -2.14041         0.002777      0.005432     -0.003782
Ti	      6.40756      4.22968     -2.14622        -0.011464      0.034009     -0.036128
Ti	      6.40714      2.06364      0.01876        -0.013734     -0.036948      0.035946
Ni	      4.09373      4.18605     -0.02549        -0.025563     -0.001700      0.002391
Ni	      0.17598      4.18507     -0.02465         0.030334     -0.000244     -0.000186
O	      4.50910      2.14507     -0.06481         0.255212     -0.107415      0.108576
O	      6.40702      2.10592     -2.10464         0.001523      0.001824     -0.002569
O	      4.50952      4.14619     -2.06643         0.252329      0.106748     -0.106002
O	      6.40689      0.00302     -0.00128         0.001339      0.002688     -0.001892
O	      8.30424      2.14475     -0.06438        -0.241508     -0.107378      0.107478
O	      2.13499      4.18453     -0.02553        -0.005739      0.002709     -0.001458
O	      8.30492      4.14586     -2.06600        -0.243345      0.106306     -0.106025
O	      2.13487      2.08225      2.07836        -0.004252      0.002344     -0.002593
