# total energy = -103.42547627 eV
 
CRYSTAL
PRIMVEC
2.064959 4.266851 2.057262 
2.065040 -4.266879 2.057230 
4.128033 -0.000062 -4.112582 
PRIMCOORD
16 1
Li	      4.12581     -0.00180     -4.10572        -0.001590     -0.000360      0.001023
Li	      2.10228      2.12958     -0.02607        -0.020575      0.000300      0.013823
Li	      6.19111     -0.00299     -2.04822        -0.001790     -0.001096      0.000946
Li	      4.13381     -2.13498     -2.05763         0.012832     -0.000666     -0.010707
Ti	      4.28385      2.13108     -2.19212         0.159662     -0.001887     -0.151319
Ti	      2.10193     -2.13572     -0.01478        -0.037954     -0.002108      0.050762
Ni	      4.11234      4.26316      0.01563         0.004103      0.002883     -0.002838
Ni	      4.11243     -0.00130      0.01564         0.005294     -0.003346     -0.002857
O	      4.06783     -2.13582      0.00540        -0.053567      0.000044     -0.003626
O	      2.06033     -0.19409      0.00417        -0.097584     -0.104663      0.101638
O	      4.12672      2.13100      0.05260         0.005775      0.002042      0.041736
O	      6.19537     -2.13587     -2.03678         0.012292     -0.000497      0.134687
O	      4.12528      0.18961      2.06145        -0.098062      0.108268      0.100856
O	      4.07317      0.21550     -2.00812         0.136697      0.143958     -0.130991
O	      6.17168      2.13101     -2.05584        -0.161722      0.000341     -0.011619
O	      6.13820     -0.22056      0.04912         0.136190     -0.143213     -0.131514
