# total energy = -103.45520103 eV
 
CRYSTAL
PRIMVEC
-0.000403 -0.000096 4.103134 
4.083736 0.000184 -0.000157 
0.000343 8.627332 -0.000028 
PRIMCOORD
16 1
Li	      4.08260      8.62280      4.09784         0.000984      0.004269      0.004624
Li	      2.03479      1.96449      4.08407        -0.009372     -0.027951      0.010715
Li	      2.03995      0.00551      2.04626         0.000230     -0.005504      0.005123
Li	      4.07839      6.66404      2.03240        -0.008418      0.027766      0.010044
Ti	      2.00790      6.59768      4.02721        -0.025724      0.495205     -0.036779
Ti	      4.04577      2.03025      1.97595        -0.027389     -0.484307     -0.036295
Ni	      0.00866      4.31423      0.02051         0.001213      0.006742      0.004232
Ni	      2.05047      4.31420      2.07197         0.000589     -0.008024      0.004069
O	      0.00561      0.21500      2.06053        -0.013193      0.412178     -0.018499
O	      2.05649      2.17842      2.05693         0.036636     -0.069472     -0.020866
O	      2.04745      8.41319      0.00902        -0.009133     -0.417103     -0.020336
O	      0.01164      4.12470      2.07983         0.008188     -0.048258     -0.007541
O	      2.04326      6.44823      2.08285         0.000514      0.091790      0.064714
O	      0.00085      2.18018      0.03133         0.000157     -0.093558      0.064660
O	      2.05317      4.50353      0.02820         0.010129      0.047046     -0.007428
O	      0.01415      6.44974      0.00537         0.034589      0.069181     -0.020436
