# total energy = -91.62125770 eV
 
CRYSTAL
PRIMVEC
-0.000150 2.066721 2.065265 
8.350031 -4.251705 4.247634 
2.045376 2.113279 -4.176882 
PRIMCOORD
16 1
Li	      2.22099      2.00024      0.06933        -0.028124     -0.008910     -0.002620
Li	      4.06648      2.05912     -2.06227        -0.030259      0.060030     -0.052523
Li	      4.00116      0.03366     -0.03768        -0.038081     -0.059393      0.066787
Li	      8.43215     -2.16088      2.15810         0.005525     -0.003571     -0.000709
Mn	      0.09799      0.00163     -0.00225         0.150747     -0.012508      0.012401
Mn	      6.24979     -0.06355      2.12444        -0.082886     -0.025526      0.020190
Ni	      6.09392      2.08175     -0.02412         0.035934     -0.096523      0.108293
Ni	      6.29900     -2.16988      4.22888         0.009476      0.083250     -0.079289
O	      2.02266      2.26506     -2.26287         0.004211      0.023746     -0.028922
O	      6.28095     -0.10698      0.10558        -0.071255     -0.043041      0.028232
O	      6.25677     -2.10541      2.09569         0.098234      0.064649     -0.054016
O	      8.25742     -0.01997      2.08328        -0.009532     -0.128936      0.120225
O	      8.30554     -2.27067      4.33094         0.127632     -0.008068      0.011720
O	      1.89972      0.02656     -0.02467        -0.098147     -0.020587      0.012447
O	      4.17300      2.05150      0.01061        -0.178072      0.017188     -0.011004
O	      4.35407     -0.11410      2.16906         0.104596      0.158198     -0.151211
