# total energy = -100.74343126 eV
 
CRYSTAL
PRIMVEC
-0.000070 0.000036 4.139057 
4.170664 -0.000078 -0.000071 
-0.000151 8.410791 0.000071 
PRIMCOORD
16 1
Li	      4.16949      0.16053      0.00100        -0.001485     -0.017197      0.001101
Li	      2.08398      2.04358      0.00148         0.000111     -0.044011     -0.001081
Li	      4.16917      4.00518      0.00118         0.000388      0.011170     -0.000066
Li	      2.08383      0.19176      2.07101         0.000895     -0.012573     -0.000718
Ti	      2.08329      6.37024      0.00149        -0.000620      0.391134      0.000053
Ti	      4.16862      6.37348      2.07075        -0.000259      0.310728      0.002317
Ni	      4.16925      2.01014      2.07075         0.000427     -0.030384     -0.000060
Ni	      2.08387      4.07271      2.07093        -0.000346      0.006139      0.000116
O	      4.16926      8.21821      2.07086        -0.000743     -0.395700     -0.000158
O	      2.08392      2.11029      2.07101         0.001067     -0.111175     -0.000981
O	      2.08405      8.18278      0.00141        -0.000654     -0.442924      0.001242
O	      4.16915      4.39999      2.07084        -0.000378      0.115456     -0.000982
O	      2.08330      6.28050      2.07114         0.000820      0.076241     -0.002534
O	      4.16933      2.07088      0.00130         0.000124      0.026608      0.000760
O	      2.08383      4.42589      0.00137        -0.000708      0.102623      0.000311
O	      4.16873      6.33046      0.00152         0.001362      0.013866      0.000682
