# total energy = -102.70900593 eV
 
CRYSTAL
PRIMVEC
-0.000376 2.106669 2.106740 
7.914174 0.000495 0.000816 
0.000035 4.501335 -4.501284 
PRIMCOORD
16 1
Li	      0.00034      0.29930     -0.29641         0.000348     -0.002637     -0.006853
Li	      1.97965      2.17294     -0.07783         0.000990      0.002313      0.000573
Li	      3.95746      1.95873     -1.95525        -0.000581     -0.005818     -0.004954
Li	      5.93676      2.17700     -0.08073         0.002057      0.000817      0.003326
Ti	      5.92653      4.48648     -2.27061        -0.026197      0.050516      0.047706
Ti	      1.96941      4.48501     -2.27020        -0.025886      0.045965      0.052598
Ni	      3.95813      2.20618      2.00034         0.001100      0.007223     -0.011396
Ni	      0.00111      4.25475     -0.04899        -0.000345     -0.010283      0.007671
O	      3.95840      2.10156     -0.00182         0.001486      0.131783     -0.118747
O	      5.85057      4.52638     -0.33723        -0.064758      0.064713     -0.144236
O	      3.96092      4.54737     -2.46441         0.019862     -0.053046      0.108806
O	      6.02542      6.41836     -2.22857         0.066593     -0.142411      0.064323
O	      0.00144      2.25254     -0.15345         0.000467     -0.119577      0.131788
O	      2.06818      4.52724     -0.33808         0.069239      0.065759     -0.145358
O	      0.00372      4.29142     -2.20909         0.021651      0.108801     -0.051536
O	      1.89353      6.41860     -2.23005        -0.066028     -0.144119      0.066289
