# total energy = -99.60930065 eV
 
CRYSTAL
PRIMVEC
-0.000011 0.000054 4.148729 
4.148842 -0.000033 -0.000007 
-0.000005 8.602794 0.000030 
PRIMCOORD
16 1
Li	      4.14648      0.25831      4.14810         0.001573      0.002644     -0.000388
Li	      2.07194      2.15173      4.14854         0.002555     -0.000507     -0.000491
Li	      4.14633      4.04394      4.14843         0.001664     -0.002077     -0.000844
Li	      4.14776      2.15167      2.07398        -0.001675      0.000660     -0.000255
Ti	      2.07423      6.45208      4.14674        -0.002810     -0.003281      0.003561
Ti	      4.14832      6.45218      2.07243         0.001804     -0.006404      0.002066
Ni	      2.07356      0.20017      2.07393        -0.000367      0.021763     -0.000797
Ni	      2.07345      4.10158      2.07411        -0.000326     -0.020287     -0.000848
O	      4.14825      8.35727      2.07385        -0.001404     -0.219021      0.000388
O	      2.07316      2.15094      2.07424        -0.000319     -0.003337     -0.000308
O	      2.07385      8.35736      4.14854        -0.000896     -0.220502     -0.000321
O	      4.14815      4.54644      2.07396        -0.000996      0.225221      0.000019
O	      2.07394      6.45181      2.07317         0.000298      0.002052     -0.000976
O	      4.14705      2.15116      4.14840         0.001916     -0.002821      0.000421
O	      2.07376      4.54654      4.14867        -0.000627      0.223921     -0.000926
O	      4.14839      6.45176      4.14748        -0.000389      0.001977     -0.000301
