# total energy = -103.73718877 eV
 
CRYSTAL
PRIMVEC
2.078453 4.142926 2.078648 
2.072292 -4.136475 2.072716 
4.201269 0.000114 -4.201948 
PRIMCOORD
16 1
Li	      2.15547      4.14204      2.00224         0.024503      0.002463     -0.025451
Li	      2.09578      2.06994     -0.01669        -0.020804      0.003056      0.021580
Li	      2.07776     -0.00024     -2.07628        -0.006450     -0.000858      0.001243
Li	      2.08011      0.00268      2.07150         0.008894      0.000335     -0.004947
Ti	      4.29862      2.07092     -2.21928         0.158729      0.003682     -0.159938
Ti	      4.07389      0.00304      0.07839        -0.199665      0.000199      0.211206
Ni	      2.05208     -2.06832      0.02145        -0.031305     -0.003789      0.031232
Ni	      4.19204     -2.06841     -2.11842         0.022784     -0.002160     -0.024234
O	      4.22710     -1.98494     -0.05726         0.097222      0.088560      0.110809
O	      2.18935     -0.05772     -0.01430         0.237641      0.141247      0.007447
O	      4.20935      1.99086     -0.07464        -0.109882     -0.091493     -0.098477
O	      6.24675     -2.10625     -2.05192         0.111775      0.019733      0.264014
O	      4.16569      0.06365      1.96321        -0.004644     -0.140797     -0.244612
O	      4.18038      0.11396     -2.01586        -0.000961      0.137574      0.025565
O	      6.20378      2.11196     -2.09442        -0.262621     -0.019048     -0.115067
O	      6.16782     -0.10815     -0.02778        -0.025218     -0.138702     -0.000370
