# total energy = -101.52388708 eV
 
CRYSTAL
PRIMVEC
0.000075 -0.000137 4.062992 
4.091025 0.009512 -0.000065 
0.021883 8.851600 0.000208 
PRIMCOORD
16 1
Li	      0.01145      0.22051      4.06104        -0.000551     -0.010965      0.000304
Li	      2.04581      2.10515      4.06112         0.003195     -0.004286      0.000456
Li	      4.05056      4.13666      4.06108         0.001447     -0.007077      0.000250
Li	      2.04657      0.11113      2.02948        -0.000148      0.030474      0.001047
Ti	      2.13837      6.78987      4.06128         0.004822      0.736922      0.000497
Ti	      1.91715      4.30919      2.03023        -0.128290     -0.446814      0.001313
Ni	      4.08149      2.00427      2.02958         0.004119      0.057248     -0.000004
Ni	      0.04427      6.89848      2.02978         0.005670     -0.061811      0.000456
O	      0.02594      8.84556      2.02968         0.000630      0.015035      0.001750
O	      2.04920      2.48707      2.02960        -0.038281      0.427226      0.000186
O	      2.06816      8.55169      4.06117         0.025051     -0.713582      0.000292
O	      0.04626      4.50516      2.02959         0.181601     -0.007738     -0.000871
O	      2.08737      6.50716      2.02964        -0.004092     -0.046967     -0.001318
O	      4.09006      2.19957      4.06106         0.002304      0.030100     -0.001420
O	      2.04764      4.59716      4.06079        -0.007562      0.019489     -0.001518
O	      0.02049      6.61150      4.06134        -0.049914     -0.017255     -0.001419
