# total energy = -103.44558532 eV
 
CRYSTAL
PRIMVEC
2.072701 4.245315 2.056809 
2.072721 -4.245282 2.056783 
4.169416 0.000014 -4.137555 
PRIMCOORD
16 1
Li	      6.23569     -4.23924     -2.07734        -0.004601     -0.007606      0.003575
Li	      4.11771     -2.11829      2.07362         0.025774     -0.002285     -0.006369
Li	      6.22333     -0.00145      2.04794        -0.004038      0.005057      0.003891
Li	      6.20193      2.12699      0.00480         0.023174      0.001770     -0.008273
Ti	      6.10900     -2.12193      0.08671        -0.085859     -0.008524      0.085360
Ti	      4.02431      2.12530      2.15595        -0.088397      0.009456      0.072515
Ni	      2.10299      0.00220      2.03286        -0.010857      0.007179      0.003086
Ni	      4.18776      0.00134     -0.03598        -0.012008     -0.002742      0.005175
O	      4.20837     -2.11780     -0.01128         0.155630     -0.079662      0.018591
O	      2.15023     -0.19638     -0.02332        -0.142042     -0.149771     -0.084790
O	      4.15792      2.11636     -0.05074        -0.020174      0.089277     -0.136040
O	      2.07338     -2.11299      2.01780        -0.020659     -0.090519     -0.127435
O	      4.16751      0.19604      2.00013         0.084317      0.148415      0.119574
O	      4.23485      0.19913     -2.09199        -0.142650      0.149753     -0.087342
O	      2.12357      2.12122      2.05758         0.156947      0.078779      0.018843
O	      6.25223     -0.19322     -0.06877         0.085443     -0.148579      0.119640
