# total energy = -103.21421032 eV
 
CRYSTAL
PRIMVEC
0.001073 -0.000023 4.107309 
4.104412 0.000018 0.001091 
-0.000066 8.610120 -0.000010 
PRIMCOORD
16 1
Li	      0.00581      8.60953      4.10204        -0.004895     -0.000425      0.003891
Li	      2.03151      2.15567      4.06064        -0.002246      0.000460      0.009603
Li	      0.00586      4.30624      4.10209        -0.005404      0.000371      0.003452
Li	      0.04490      6.45827      2.08961        -0.008827     -0.001171     -0.010068
Ti	      2.21225      6.45795      0.05774         0.210255     -0.010439     -0.005071
Ti	      4.07013      2.15212      1.89053        -0.001033      0.011741     -0.204652
Ni	      2.03811      0.00014      2.06918         0.005092      0.001217     -0.002233
Ni	      2.03810      4.30533      2.06910         0.005060     -0.001428     -0.002288
O	      4.09439      0.21950      2.07871        -0.001874      0.126782     -0.017363
O	      2.03938      2.15267      2.03853         0.013208     -0.002892     -0.008697
O	      2.02823      8.38988      0.00903         0.019392     -0.124943      0.008688
O	      4.09438      4.08536      2.07877        -0.002066     -0.133128     -0.018239
O	      2.06653      6.45752      2.07032         0.012145      0.003258     -0.032339
O	      4.08651      2.15254      0.03848        -0.011545     -0.001757      0.249238
O	      2.02829      4.52464      0.00900         0.019807      0.130160      0.009379
O	      4.06664      6.45750      0.02706        -0.247068      0.002193      0.016701
