# total energy = -101.13056529 eV
 
CRYSTAL
PRIMVEC
-0.000033 2.085528 2.085503 
8.335621 0.004746 -0.004861 
0.005134 4.192191 -4.192140 
PRIMCOORD
16 1
Li	      0.18462      2.10246      2.06561        -0.022327      0.007587     -0.005310
Li	      2.12576      2.06245      0.02041         0.023800     -0.013779      0.015460
Li	      4.00945      4.16004      0.01078        -0.006998     -0.022389      0.021276
Li	      4.00149      2.11363      2.05570         0.043131      0.012406     -0.011078
Ti	      6.19627      4.19913     -2.11343        -0.350423      0.023345     -0.025359
Ti	      6.19511      2.07580      0.00951        -0.383539     -0.033782      0.032916
Ni	      0.10486      4.16545      0.00488         0.029869     -0.014250      0.014123
Ni	      2.14089      4.20656     -2.12241         0.048741      0.017941     -0.016724
O	      4.37395      2.09489     -0.01048         0.409646      0.001395     -0.000130
O	      6.24641      4.18183     -0.01108        -0.061056     -0.004736      0.003607
O	      4.36937      4.18888     -2.10418         0.404702     -0.008871      0.007408
O	      6.28212      6.27670     -2.10599        -0.013979      0.002342     -0.003568
O	      8.16070      2.12696     -0.04235        -0.099884     -0.098115      0.098405
O	      2.08560      4.28356     -0.11379         0.115111     -0.072809      0.073025
O	      8.15644      4.14893     -2.06422        -0.124338      0.101072     -0.101485
O	      2.10904      6.19361     -2.02403        -0.012456      0.102641     -0.102564
