# total energy = -103.00935010 eV
 
CRYSTAL
PRIMVEC
2.081030 4.104209 2.096917 
2.074370 -4.097346 2.090265 
4.177627 0.000008 -4.209411 
PRIMCOORD
16 1
Li	      0.02962     -0.00249     -0.02276         0.008709      0.005043     -0.008973
Li	      2.07738      2.05619      0.01985         0.007412      0.003628     -0.019682
Li	      6.21444      0.00921      2.10982        -0.008410     -0.002374      0.011027
Li	      2.10580      0.00833      2.06619         0.008150     -0.005017     -0.010933
Ti	      4.13310      2.05372     -2.05160        -0.015662      0.003180      0.024504
Ti	      1.96552     -2.04896      0.13917        -0.050526     -0.004933      0.067525
Ni	      4.15824      0.00535     -0.01155        -0.010093      0.001082      0.015252
Ni	      6.24892      2.05771     -0.01581        -0.002425     -0.000625      0.012712
O	      4.22161     -2.04679     -0.04961         0.057087     -0.124548      0.125727
O	      2.13026     -0.17386     -0.03926        -0.138698     -0.180115      0.028233
O	      4.18909      2.05820     -0.09037        -0.113792      0.120513     -0.078494
O	      2.06711     -2.06775      2.06790         0.091688      0.009411     -0.125534
O	      4.18308      0.18405      2.01921        -0.021088      0.181604      0.154276
O	      4.19425      0.12362     -2.10437        -0.005163      0.168544     -0.100246
O	      6.27215      2.07512     -2.09727         0.091603     -0.008392     -0.104019
O	      6.24174     -0.11507     -0.04948         0.101207     -0.167002      0.008624
