# total energy = -103.82611631 eV
 
CRYSTAL
PRIMVEC
2.075975 4.156397 2.075714 
4.211878 -4.202487 0.031614 
4.180219 -0.000083 -4.179565 
PRIMCOORD
16 1
Li	     10.44577     -0.06207     -2.07481        -0.010266     -0.001443      0.002949
Li	      2.10793      2.08679     -0.00804         0.008888      0.000366     -0.006893
Li	      2.09144      0.00668     -2.06918        -0.004376      0.005007      0.009977
Li	      8.38635     -2.14032     -2.09068         0.002084     -0.002062     -0.012199
Ti	      6.19633      2.05064      0.07637        -0.105928     -0.003797      0.112454
Ti	      6.35722     -0.02767     -2.16094         0.111669     -0.002233     -0.107366
Ni	      8.35239      2.05050     -2.07997         0.009155      0.000443     -0.002897
Ni	      4.20064     -0.02734     -0.00478        -0.003029     -0.000592      0.008178
O	      4.17535     -2.10780     -0.08197         0.089949     -0.093591     -0.163526
O	      6.28561      0.06557     -0.08084         0.097197      0.087433     -0.027433
O	      2.12177     -0.02558      0.10151        -0.091277      0.093117      0.159084
O	      4.27894      2.05264      0.02076         0.158126      0.094215     -0.090965
O	      6.19992     -2.01257     -2.07103        -0.026040      0.086540      0.098969
O	      8.27471     -0.02981     -2.10534        -0.161488     -0.094591      0.091329
O	      4.27738     -0.12101     -2.08929         0.026013     -0.084794     -0.098864
O	      6.26794      1.95710     -2.00381        -0.100677     -0.084019      0.027205
