# total energy = -103.82778879 eV
 
CRYSTAL
PRIMVEC
2.068783 4.171829 2.050118 
4.175390 -4.197716 0.013398 
4.177187 0.015228 -4.170649 
PRIMCOORD
16 1
Li	      6.22341      4.13802     -2.13643        -0.006561      0.000043      0.000977
Li	      2.12992      2.12606     -0.00466         0.016858      0.001107      0.012763
Li	      2.07764     -0.00718     -2.03806        -0.004546     -0.016982      0.002991
Li	      4.12576      2.09648      2.03550        -0.003499      0.001000     -0.017724
Ti	      4.13930     -2.13128     -1.96196        -0.077263     -0.092166      0.170278
Ti	      6.33719      0.02226     -2.23446         0.156126      0.044915     -0.262715
Ni	      8.30281     -2.13593     -2.12764        -0.039370     -0.016194     -0.044953
Ni	      4.17129      0.00623     -0.00878        -0.015523     -0.001333      0.011462
O	      4.14900     -2.08138     -0.06106         0.007262     -0.092245     -0.289008
O	      6.26265      0.11007     -0.06383         0.090202      0.152129     -0.034740
O	      2.09907      0.02696      0.08009        -0.097102     -0.012382      0.311804
O	      4.27534      2.07811     -0.06694         0.168629      0.094780      0.111557
O	      6.17909     -1.97618     -2.06957        -0.135366      0.088279     -0.003151
O	      8.24479     -0.06494     -2.12181        -0.212806      0.110884      0.101958
O	      4.24857     -0.06202     -2.08637         0.043116     -0.131935     -0.091917
O	      6.21390      1.98451     -2.02506         0.109845     -0.129897      0.020417
