# total energy = -103.64334842 eV
 
CRYSTAL
PRIMVEC
2.100528 4.129798 2.056627 
4.223205 -4.147699 0.013123 
4.222729 0.012672 -4.160081 
PRIMCOORD
16 1
Li	      2.08540      4.08803      2.03154        -0.004037      0.010184     -0.008761
Li	      2.14592      2.09693     -0.01709         0.008728      0.007555      0.005246
Li	      2.09497      0.02425     -2.03423        -0.002028     -0.003227      0.016882
Li	      4.22178      0.00624     -0.00820        -0.005354     -0.002032      0.010114
Ti	      4.13832     -2.09893     -1.93695        -0.133984     -0.096985      0.181603
Ti	      6.39068      0.01239     -2.19686         0.107301      0.014218     -0.198628
Ni	      8.42172     -2.10953     -2.10924        -0.008752     -0.004477     -0.006385
Ni	      4.18789      2.05897      2.03952        -0.015928     -0.026227     -0.046052
O	      4.16824     -2.10422     -0.04190         0.101968      0.007400     -0.295443
O	      6.35085      0.13300     -0.08427        -0.016221      0.149438     -0.029038
O	      2.10411     -0.01117      0.09119         0.012724      0.105702      0.263742
O	      4.34088      2.10044     -0.03431         0.201771     -0.013704     -0.002719
O	      6.28572     -1.99495     -2.07532        -0.113040      0.071989      0.092074
O	      8.31005     -0.02384     -2.09752        -0.171726      0.009771     -0.000880
O	      4.33919     -0.07502     -2.07975         0.039694     -0.141437     -0.007421
O	      6.30570      2.00083     -2.03731        -0.001115     -0.088168      0.025665
