# total energy = -103.87399676 eV
 
CRYSTAL
PRIMVEC
2.095498 4.178076 2.034365 
4.178639 -4.168487 -0.006986 
4.211434 0.025932 -4.141527 
PRIMCOORD
16 1
Li	      6.23307     -0.04435      1.99464        -0.016594     -0.005048     -0.010803
Li	      2.14039      2.14923      0.01393         0.017419      0.008179      0.009226
Li	      4.15753      2.08780      2.00311         0.007447     -0.005797     -0.026682
Li	      4.21650      0.01971      0.00550        -0.006587      0.001116      0.026642
Ti	      4.13384     -2.10415     -1.91510        -0.157905     -0.108503      0.320443
Ti	      6.35679      0.05884     -2.25181         0.156837      0.103102     -0.320076
Ni	      2.12656      0.04174     -2.02005         0.006288      0.001881      0.044490
Ni	      8.36303     -2.08804     -2.14726        -0.003912      0.000016     -0.043992
O	      4.16068     -2.09963     -0.06945         0.007129      0.005451     -0.437116
O	      6.32927      0.14072     -0.07877        -0.113138      0.115075     -0.026433
O	      2.11871      0.02698      0.04384        -0.010313     -0.001710      0.433824
O	      4.31938      2.15837     -0.06520         0.195331     -0.119245      0.098523
O	      6.22414     -1.99018     -2.07199        -0.120635      0.134107      0.004413
O	      8.26645     -0.02602     -2.06776        -0.194866      0.117954     -0.099237
O	      4.26604     -0.05615     -2.09545         0.119597     -0.132898     -0.003122
O	      6.25611      1.99150     -2.05497         0.113902     -0.113678      0.029899
