# total energy = -103.10646790 eV
 
CRYSTAL
PRIMVEC
2.107983 4.055239 2.107818 
4.204863 -4.044325 -0.010089 
4.214997 0.000094 -4.214771 
PRIMCOORD
16 1
Li	      0.01950      0.00054     -0.01671        -0.002326      0.000407      0.001719
Li	      2.11676      2.02894     -0.00556        -0.019691      0.000090      0.018738
Li	      2.10894     -2.00940     -0.00508        -0.007597      0.004651     -0.004083
Li	      6.31997      2.02255     -0.00745         0.006719     -0.003472      0.005132
Ti	      4.30326     -0.00966     -0.00291         0.086277     -0.168521      0.004533
Ti	      6.31792      0.02320     -2.20264         0.005185      0.167259     -0.092019
Ni	      2.06471      0.00145     -2.06227        -0.001047     -0.000056      0.002868
Ni	      4.21117      2.02881     -2.10077         0.021340      0.001626     -0.020777
O	      4.21679     -1.88528      0.04537         0.008820      0.210600     -0.131459
O	      6.25266      0.01276     -0.07943        -0.203074     -0.001526     -0.052775
O	      2.18003      0.00061      0.06271         0.052661      0.003444      0.202055
O	      4.21811      1.98702     -0.02489        -0.008398     -0.149004      0.084785
O	      6.34046     -1.97355     -2.11754        -0.086138      0.149282      0.007332
O	      8.32917      0.03471     -2.15741        -0.084404      0.117906     -0.103573
O	      4.25793     -0.02131     -2.01391         0.102104     -0.119517      0.084297
O	      6.26995      1.89889     -2.11630         0.129571     -0.213168     -0.006773
