# total energy = -103.44377803 eV
 
CRYSTAL
PRIMVEC
2.095278 4.179057 2.095650 
4.184511 -4.175964 -0.000183 
4.184563 -0.000084 -4.185216 
PRIMCOORD
16 1
Li	      2.12030      4.16449      2.06699         0.010646     -0.015784     -0.010512
Li	      2.11158      2.10741      0.02092         0.015912     -0.000271      0.010894
Li	      4.15505      4.16495      0.03121        -0.008965     -0.016696      0.013044
Li	      2.08045     -2.06074     -0.01125        -0.010794     -0.007043     -0.010089
Ti	      4.17172     -0.00444      0.01582        -0.061499     -0.000116      0.059642
Ti	      6.29711     -0.00451     -2.11212         0.058892      0.001222     -0.069487
Ni	      8.35045     -2.10478     -2.11009        -0.026324     -0.001964     -0.025600
Ni	      6.28631      2.06309      0.01082         0.037442      0.039830      0.036356
O	      4.18753     -1.94760     -0.00269         0.001565      0.140989     -0.002811
O	      6.20836      0.01111     -0.06617        -0.069146     -0.129595     -0.067106
O	      2.19071      0.02187      0.09997         0.106810      0.003276      0.112256
O	      4.22505      1.96236     -0.04233        -0.114117     -0.128604      0.109373
O	      6.27251     -1.94774     -2.08792        -0.001341      0.144725      0.000586
O	      8.28957     -0.00551     -2.17167        -0.111762      0.095874     -0.108492
O	      4.25106     -0.01588     -2.02461         0.063513      0.004153      0.066956
O	      6.23312      1.96170     -2.05014         0.109168     -0.129996     -0.115008
