# total energy = -103.33991813 eV
 
CRYSTAL
PRIMVEC
2.105267 4.160831 2.050707 
4.223409 -4.166868 0.000057 
4.228612 0.005512 -4.130226 
PRIMCOORD
16 1
Li	      4.29977     -4.08641     -0.09632        -0.000376      0.000388     -0.001714
Li	      2.13885      2.09134      0.01241        -0.012057     -0.002030      0.007782
Li	      4.23817      2.10148      1.98634         0.000290     -0.006311     -0.002226
Li	      6.26469      2.03261      0.05865         0.008256     -0.005921      0.004611
Ti	      4.33465      2.08541     -2.11095         0.163795     -0.014869     -0.137806
Ti	      6.30900     -0.09812     -2.08633        -0.004362     -0.052947     -0.027839
Ni	      2.07722      0.01281     -1.97946         0.027213      0.023504      0.020273
Ni	      4.23778      0.02685      0.02751         0.040086      0.021519      0.015121
O	      4.20760     -2.04097      0.12436         0.018153     -0.114879      0.183024
O	      6.33763      0.01015     -0.12104        -0.009192     -0.012658     -0.090852
O	      2.13739     -0.01416      0.08061        -0.081087     -0.000464      0.193512
O	      4.22885      2.10848     -0.11215        -0.001271     -0.009103     -0.070342
O	      6.40078     -2.02393     -2.06757         0.025694      0.209905     -0.000365
O	      8.33359     -0.06746     -2.03452        -0.065630     -0.059468      0.018656
O	      4.27918      0.07297     -2.05831         0.109635      0.071953     -0.105063
O	      6.22039      1.96553     -2.07992        -0.219148     -0.048619     -0.006771
