# total energy = -92.21241239 eV
 
CRYSTAL
PRIMVEC
4.051080 0.000080 -0.000185 
-2.025834 4.220512 -6.233020 
-2.025654 4.199793 2.063810 
PRIMCOORD
16 1
Li	      2.02726      2.06760     -0.11837         0.001214     -0.005559     -0.015236
Li	      0.00145      4.02782      0.00673         0.001997     -0.006382      0.016089
Li	      0.00126      1.99547     -2.00338         0.003379     -0.021984      0.026895
Li	     -2.02327      6.37836     -4.26857        -0.004282      0.015810     -0.032539
Mn	     -2.02326      4.22362      1.95668        -0.000337      0.028991     -0.052559
Mn	      0.00146      6.37419     -2.04991         0.001532      0.017468      0.003896
Ni	     -2.02447      4.22880     -1.95098         0.001380      0.046786     -0.005917
Ni	      0.00197      4.33839     -4.16739        -0.001321     -0.027717     -0.018452
O	     -2.02424      6.31330     -2.04630        -0.002194      0.029086     -0.002197
O	      2.02726      4.11072      0.09282         0.000642      0.011656      0.089899
O	      0.00213      6.40450     -3.99532        -0.002127      0.074941      0.024688
O	     -2.02340      8.39720     -4.13829        -0.003215     -0.008160     -0.124961
O	      2.02742      4.13054     -4.24502        -0.000426     -0.021440     -0.015712
O	      2.02658      2.28388     -2.23537         0.006663     -0.112501     -0.027534
O	      0.00109      4.44824     -2.09979        -0.000646      0.002195      0.116675
O	      0.00247      1.85856     -0.03012        -0.002260     -0.023189      0.016966
