# total energy = -102.75183754 eV
 
CRYSTAL
PRIMVEC
2.086267 4.072131 2.057400 
4.217001 -4.091370 -0.006842 
4.230272 0.006409 -4.185349 
PRIMCOORD
16 1
Li	      0.12443     -0.01071      0.02327        -0.000330      0.001148     -0.026347
Li	      2.14969      1.92553     -0.00462        -0.010511      0.014739      0.014238
Li	      4.07990      0.01282     -0.01262         0.019808      0.016900      0.021356
Li	      6.31537     -0.00806     -2.25416         0.007484      0.012528      0.006405
Ti	      8.51077     -2.01223     -2.17127         0.122674      0.132565     -0.038781
Ti	      4.27525     -2.13025     -2.00519         0.013180     -0.457958      0.013596
Ni	      2.11796      0.01150     -2.03778        -0.049231     -0.007748     -0.056772
Ni	      4.15096      2.03492      2.03565        -0.059242     -0.132130     -0.052578
O	      4.19515     -2.03122     -0.00047         0.090219     -0.003617      0.000207
O	      6.33759      0.13231      0.00139        -0.076181      0.467060      0.021128
O	      2.09315     -0.06304     -0.05533         0.002522      0.157131      0.161550
O	      4.32845      2.03511     -0.10410         0.046392     -0.120577     -0.107313
O	      6.27047     -2.02085     -2.12056        -0.024454      0.120514      0.105862
O	      8.38309     -0.11008     -2.09843         0.008876     -0.219501     -0.085515
O	      4.18584      0.09092     -2.10663         0.119149      0.012170     -0.000334
O	      6.21280      2.04417     -2.01709        -0.210354      0.006775      0.023299
