# total energy = -102.90667120 eV
 
CRYSTAL
PRIMVEC
2.073887 4.201736 2.017580 
4.183543 -4.219247 -0.001845 
4.205217 0.020410 -4.134191 
PRIMCOORD
16 1
Li	      0.12190     -0.04208     -0.02604        -0.041048     -0.003021     -0.027810
Li	      2.14714      1.94782      0.00770         0.010366      0.001793      0.023013
Li	      2.03157     -1.95288     -0.03408        -0.009118     -0.000452     -0.023450
Li	      4.05781      0.03780     -0.00130         0.040833      0.004409      0.028499
Ti	      8.37755     -2.05258     -2.18814         0.100393      0.273809     -0.074405
Ti	      4.18906     -2.14871     -1.97513        -0.100359     -0.275710      0.072225
Ni	      2.11604      0.00708     -1.99903        -0.012636     -0.009467     -0.027113
Ni	      6.26831      0.00954     -2.16156         0.013040      0.010142      0.029125
O	      4.18162     -2.11176     -0.01408        -0.001094      0.000239      0.001233
O	      6.31740      0.18868     -0.06985        -0.102984      0.295448      0.103639
O	      2.08976     -0.00240     -0.01317        -0.000834     -0.000481     -0.001255
O	      4.30902      2.11435     -0.11715         0.103804     -0.100114     -0.028871
O	      6.28491     -2.10149     -2.08126         0.000580     -0.000525      0.000645
O	      8.32506     -0.18889     -2.07546         0.101739     -0.295946     -0.103587
O	      4.19234      0.00699     -2.08033        -0.000101     -0.000038     -0.000740
O	      6.14892      2.10359     -2.02594        -0.102581      0.099914      0.028852
