# total energy = -103.43505212 eV
 
CRYSTAL
PRIMVEC
2.007384 4.205245 2.077043 
4.108284 -4.244125 -0.014814 
4.105254 -0.017898 -4.207542 
PRIMCOORD
16 1
Li	      2.11446      4.11886      2.01617         0.006041     -0.017081      0.012858
Li	      2.04534      2.09940     -0.01413        -0.004205     -0.001497      0.007078
Li	      6.04924     -2.05106     -4.15672        -0.006413      0.016933     -0.014135
Li	      6.11807     -0.03175     -2.12638         0.004521      0.001684     -0.006669
Ti	      8.20912     -2.20665     -2.22468         0.123566     -0.004690     -0.116997
Ti	      4.06248      0.02955      0.07001        -0.120089      0.004989      0.116485
Ni	      8.09574     -0.05562     -0.04814        -0.047518     -0.062606     -0.049494
Ni	      4.17604     -2.12077     -2.10742         0.046790      0.063234      0.050336
O	      4.11893     -2.01236      0.05007        -0.015243      0.054467      0.201856
O	      6.04929      0.03058     -0.01297        -0.191139     -0.104789      0.005574
O	      2.16679     -0.01745     -0.06348         0.189921      0.012434      0.114291
O	      4.09445      2.02997     -0.09572        -0.101998     -0.149204     -0.032190
O	      6.22242     -2.20686     -2.14244         0.192426      0.103797     -0.004317
O	      8.15278     -0.16381     -2.20537         0.014677     -0.054626     -0.204320
O	      4.06904      0.03772     -2.04524         0.100765      0.150311      0.033156
O	      5.99673      2.08516     -2.07730        -0.192102     -0.013356     -0.113512
