# total energy = -103.24253491 eV
 
CRYSTAL
PRIMVEC
2.091800 4.146403 2.006686 
4.234686 -4.168531 -0.005910 
4.252063 0.011885 -4.106147 
PRIMCOORD
16 1
Li	      6.39469      0.00897      1.89654         0.010691     -0.006362     -0.015352
Li	      2.10860      2.07532     -0.02238         0.000728      0.001280     -0.001558
Li	      2.05750     -0.02846     -1.94665        -0.007617      0.005567      0.011670
Li	      4.22718     -0.00925     -0.02620        -0.003288     -0.000275      0.000446
Ti	      8.46682     -2.08259     -2.08163        -0.002325      0.011916     -0.000353
Ti	      6.34713     -0.00067     -2.07944        -0.002369     -0.001693      0.004320
Ni	      4.21376      2.06054      1.93467        -0.058985     -0.070720     -0.051574
Ni	      4.24045     -2.08064     -1.98667         0.060493      0.063704      0.054073
O	      4.17781     -2.10576      0.06778         0.110307     -0.000285      0.218240
O	      6.36109      0.03824     -0.14834        -0.002055     -0.130728     -0.147069
O	      2.09367     -0.05837      0.09684         0.002227      0.130602      0.144650
O	      4.27664      2.08598     -0.11973        -0.115264      0.002875     -0.217244
O	      6.43067     -2.02745     -2.07112         0.114727      0.067296      0.086227
O	      8.36379     -0.09176     -2.09070        -0.086414     -0.118845      0.011735
O	      4.34376      0.08249     -2.06726         0.091043      0.115192     -0.011071
O	      6.27623      2.01941     -2.08683        -0.111900     -0.069524     -0.087139
