# total energy = -103.04391356 eV
 
CRYSTAL
PRIMVEC
2.042846 4.208578 2.042912 
4.159683 -4.239360 -0.013400 
4.173069 -0.000026 -4.173151 
PRIMCOORD
16 1
Li	      0.12261     -0.02289     -0.01163        -0.014386     -0.011423     -0.024556
Li	      2.10744      1.94501      0.01896         0.009624      0.005287      0.009794
Li	      2.07698     -0.02284     -1.96602        -0.024682     -0.011314     -0.012930
Li	      2.02999     -1.96177     -0.05850        -0.026150      0.005093     -0.024995
Ti	      8.31756     -2.07781     -2.11720         0.057118      0.300027      0.056879
Ti	      4.25599     -2.18039     -2.00573         0.041612     -0.302863      0.042140
Ni	      4.08545     -0.00646     -0.04270         0.079496      0.018887      0.054011
Ni	      6.21904     -0.00643     -2.17623         0.053805      0.018312      0.079025
O	      4.15575     -2.12031     -0.05218         0.001573     -0.088363     -0.066357
O	      6.19314      0.17095     -0.06847         0.103418      0.292665      0.104172
O	      2.10407     -0.00889      0.01548        -0.142955     -0.000858     -0.143488
O	      4.22923      2.10207     -0.15317         0.030066      0.081174     -0.103714
O	      6.20947     -2.12027     -2.10600        -0.065799     -0.088552      0.000926
O	      8.26836     -0.21641     -2.16647         0.110961     -0.298943      0.112383
O	      4.16090      0.01087     -2.10085        -0.112140     -0.000135     -0.112003
O	      6.10847      2.10207     -2.03237        -0.101560      0.081006      0.028713
