# total energy = -102.75217915 eV
 
CRYSTAL
PRIMVEC
2.092559 4.080366 2.063771 
4.203403 -4.086119 -0.007169 
4.219346 0.009078 -4.179632 
PRIMCOORD
16 1
Li	      0.11870     -0.01185     -0.01165        -0.014460      0.004463     -0.034359
Li	      2.12665      1.92029      0.00399        -0.002292      0.010514     -0.007746
Li	      2.12337      0.00644     -1.95108        -0.018188      0.002211      0.001081
Li	      4.06844      0.01310     -0.03517         0.019724      0.010685      0.006170
Ti	      8.43741     -1.98516     -2.08766         0.046918      0.169942      0.049815
Ti	      4.25857     -2.10981     -1.97984        -0.024591     -0.424547      0.102048
Ni	      4.16835      2.04185      2.01193        -0.031206     -0.121954     -0.071250
Ni	      6.28510      0.01131     -2.16730         0.021845      0.017766      0.082847
O	      4.18385     -2.04788     -0.04738         0.088742      0.000885     -0.082534
O	      6.32983      0.15965     -0.06413         0.013780      0.421998      0.116589
O	      2.08293     -0.06750      0.02193         0.015576      0.164368     -0.141086
O	      4.31942      2.06866     -0.12112         0.051547     -0.008789     -0.168543
O	      6.29424     -2.04065     -2.11817        -0.020894     -0.117880      0.089930
O	      8.35780     -0.09677     -2.15861         0.098262     -0.237267      0.006704
O	      4.21548      0.08057     -2.10380        -0.097654     -0.000718      0.012231
O	      6.20394      2.07834     -2.04183        -0.147107      0.108321      0.038101
