# total energy = -103.73246588 eV
 
CRYSTAL
PRIMVEC
2.070541 4.123876 2.070002 
4.175273 -4.128487 -0.025333 
4.200629 0.000009 -4.199682 
PRIMCOORD
16 1
Li	      2.07410      4.12011      2.06725         0.006653      0.002969     -0.010662
Li	      2.07964      2.05919     -0.00852        -0.012624      0.002544      0.008380
Li	      8.33092      2.02976     -2.15121        -0.024674     -0.008284     -0.002123
Li	      4.19378     -2.03757     -2.08517         0.006958      0.004623      0.026749
Ti	      4.05088      4.12223      0.08864        -0.186344     -0.000627      0.185453
Ti	      4.30889      2.05946     -2.23897         0.269736      0.001370     -0.269148
Ni	      4.22070      0.05666     -0.00145         0.033226      0.010508      0.022660
Ni	      6.24674     -0.06549     -2.17555        -0.023770     -0.011456     -0.033050
O	      4.18201     -2.00763      0.07319         0.013397     -0.120223      0.291730
O	      6.33684      0.01388     -0.06470         0.297176     -0.003173      0.086050
O	      2.10970     -0.02259     -0.09175        -0.086543      0.002867     -0.297695
O	      4.19192      2.16360     -0.10734        -0.013045      0.165030     -0.028783
O	      6.35295     -2.17248     -2.14773         0.028816     -0.165636      0.014366
O	      8.32107     -0.08020     -2.10083         0.115289     -0.083380      0.133468
O	      4.14605      0.07098     -2.07581        -0.133680      0.084540     -0.112353
O	      6.17147      1.99885     -2.13646        -0.290572      0.118327     -0.015043
