# total energy = -102.58146554 eV
 
CRYSTAL
PRIMVEC
0.000037 4.186575 -0.000020 
4.239099 0.000026 3.953497 
4.239130 0.000035 -3.953507 
PRIMCOORD
16 1
Li	      8.44821      4.18360      0.00188         0.010393      0.000869     -0.004008
Li	      2.15061      2.09080     -0.00163        -0.012437      0.000299      0.003587
Li	      4.20882      4.18350     -0.00165         0.011842      0.001046      0.003724
Li	      6.38883      2.09074      0.00188        -0.010460      0.000951     -0.004034
Ti	      6.24739      0.01020      1.97693        -0.132247      0.001690     -0.003161
Ti	      4.35081      2.10130     -1.97677         0.132368      0.003709     -0.000350
Ni	      2.15773      4.18310      1.97678         0.013288      0.000691      0.001479
Ni	      4.20129      2.09017      1.97680        -0.013241     -0.000251      0.000896
O	      2.11908      4.18120     -0.08286         0.009464      0.000524     -0.271529
O	      4.24014      2.08832     -0.08286        -0.010531     -0.000035     -0.271766
O	      4.29635      4.18240      1.97684         0.226912      0.003753      0.000332
O	      2.16874      2.08247     -1.97663         0.083974     -0.009468      0.000109
O	      4.19051      4.17702     -1.97670        -0.082716     -0.007780      0.000037
O	      6.30187      2.08888     -1.97664        -0.226266      0.003658     -0.000194
O	      6.35809      4.18122      0.08302         0.009825      0.000534      0.272882
O	      4.24014      2.08834     -3.87049        -0.010167     -0.000190      0.271995
