# total energy = -45.25650455 eV
 
CRYSTAL
PRIMVEC
0.000030 4.176693 -0.000036 
3.939789 0.000028 0.000024 
-0.000022 0.000036 -4.176738 
PRIMCOORD
8 1
Li	      1.96568      2.08725     -0.00215         0.006189     -0.005631     -0.001824
Li	      1.96615      0.00029     -2.09165         0.004359     -0.008522      0.000814
Mn	      3.93591      4.17337     -0.00284        -0.001221      0.002023     -0.001114
Ni	      3.93580      2.08522     -2.09060         0.002257      0.002177     -0.002449
O	      3.93568      2.08497     -0.00239        -0.001750      0.002547     -0.000921
O	      1.96604      4.17388     -0.00349        -0.003450      0.000830      0.002670
O	      1.96592      2.08539     -2.09123        -0.002583      0.002488      0.001009
O	      3.93600      4.17324     -2.09148        -0.003801      0.004088      0.001815
