# total energy = -92.59869521 eV
 
CRYSTAL
PRIMVEC
2.044400 4.163616 2.031515 
4.154016 -2.096140 -2.067858 
0.010521 4.176624 -4.099342 
PRIMCOORD
16 1
Li	      2.03898      2.07932     -0.04648        -0.012846     -0.007223      0.003104
Li	      4.16368      4.06835     -0.06006         0.006351     -0.011461      0.015209
Li	      4.08762      2.11541     -1.96742        -0.004677      0.005406      0.004117
Li	      4.15126      4.22346     -4.17622         0.000084      0.000220     -0.019730
Mn	      6.16645      2.09173     -0.08493        -0.026133      0.059322      0.009771
Mn	      2.11058      4.17819     -2.05325        -0.006512     -0.038621     -0.020019
Ni	      6.18199      4.14681     -2.06592        -0.032027      0.011632      0.025563
Ni	      2.10585      2.08373     -4.11448         0.052661      0.024746     -0.012525
O	      4.00724      4.20922     -2.06413        -0.111169     -0.111178      0.010509
O	      4.23141      2.05293     -4.26340         0.122364      0.100395     -0.044936
O	      4.30978      2.03622     -0.00892         0.084413      0.000809     -0.116402
O	      4.12673     -0.20195     -2.10590        -0.008214     -0.094300      0.125323
O	      2.04254      4.19093     -0.01520         0.007343     -0.123117     -0.009007
O	      2.07855      2.28128     -2.06571         0.071265      0.087706      0.094801
O	      2.09222      6.23144     -2.04654        -0.098441      0.000256     -0.101224
O	      1.97745      4.16299     -3.98627        -0.044462      0.095409      0.035445
