# total energy = -102.95254517 eV
 
CRYSTAL
PRIMVEC
-0.001484 4.146962 0.000167 
4.218986 -0.001346 4.070410 
4.242471 -0.001715 -4.094770 
PRIMCOORD
16 1
Li	      8.41068      0.00521     -0.01578         0.018790     -0.001969     -0.018830
Li	      2.19797      2.06728     -0.00035        -0.003231      0.001382     -0.001750
Li	      4.24075      0.00507     -0.02441        -0.034857     -0.003974      0.016981
Li	      4.13627      2.07153      2.00689        -0.008283     -0.001930      0.013014
Ti	      6.13992      0.01044      2.10483        -0.347966      0.002728      0.260414
Ti	      4.33913      2.14437     -2.06904         0.109796      0.020110     -0.055257
Ni	      6.33288      2.06470     -0.02125         0.009270      0.001619     -0.019646
Ni	      2.21059      0.00015      1.98352         0.060806      0.001652     -0.040122
O	      2.12235      4.14176     -0.11402        -0.031469      0.000008     -0.311183
O	      4.26592      2.05672     -0.15627        -0.095735      0.011373     -0.164058
O	      4.29786      4.14264      2.03304         0.413356      0.001339      0.007413
O	      2.18033      2.06501     -2.02822         0.033445     -0.001178      0.113827
O	      4.23099      4.11987     -2.05819        -0.079551     -0.052852     -0.002395
O	      6.29909      2.06654     -2.08366        -0.168591      0.014033     -0.099407
O	      6.34635      4.13816      0.07100        -0.007559     -0.002209      0.090142
O	      4.16156      2.05730     -3.94824         0.131780      0.009867      0.210856
