# total energy = -103.52346730 eV
 
CRYSTAL
PRIMVEC
0.000013 4.069677 -0.000073 
4.228972 -0.000032 4.181393 
4.313851 -0.000107 -4.268940 
PRIMCOORD
16 1
Li	      8.44902      0.00084     -0.10799         0.023299      0.000430     -0.018563
Li	      2.22473      2.03580     -0.00831        -0.023377     -0.000305      0.017389
Li	      2.26408      0.00093      1.92932         0.026829      0.000629     -0.005537
Li	      4.09525      2.03579      2.22428        -0.026930     -0.000088      0.004289
Ti	      6.20020      0.00074      2.13616        -0.288981     -0.000072      0.227217
Ti	      4.47296      2.03550     -2.25285         0.286409      0.000068     -0.226317
Ni	      4.27023      0.00092     -0.02274        -0.063759      0.000237      0.078786
Ni	      6.40277      2.03575     -0.09368         0.064432     -0.000456     -0.075657
O	      2.20883      0.00098     -0.18631        -0.122761     -0.000312     -0.245274
O	      4.32368      2.03580     -0.23065        -0.085482     -0.000710     -0.064995
O	      4.33973      0.00091      2.08006         0.284270      0.000069      0.079972
O	      2.21941      2.03578     -2.14901         0.019084      0.000376      0.110894
O	      4.22473      0.00093     -2.14895        -0.020414     -0.000054     -0.111386
O	      6.33340      2.03569     -2.19653        -0.280873     -0.000538     -0.078414
O	      6.34942      0.00091      0.11408         0.085852      0.000105      0.062126
O	      4.23516      2.03571     -4.11180         0.122402      0.000620      0.245470
