# total energy = -102.72251337 eV
 
CRYSTAL
PRIMVEC
-0.001009 4.070914 0.001048 
4.391965 0.000002 4.391380 
4.180353 -0.002360 -4.180044 
PRIMCOORD
16 1
Li	      0.22794      4.07091      0.22832         0.010840      0.000932      0.024468
Li	      2.11831      2.02412      0.05439        -0.020445     -0.000839      0.028564
Li	      1.96935      0.00114      1.96872        -0.009419     -0.001269     -0.024065
Li	      4.26111      2.04529     -2.03841         0.019810      0.002466     -0.027479
Ti	      6.46580      1.86134      0.13263         0.104715     -0.198252     -0.105590
Ti	      4.30371      2.20834      2.27630        -0.110318      0.199459      0.101489
Ni	      4.17225     -0.00011     -0.00424         0.062884     -0.003019      0.037516
Ni	      2.20624     -0.00110     -1.97970        -0.061309      0.001868     -0.035129
O	      2.17109      4.06308      0.02194        -0.141532     -0.005059      0.139714
O	      4.44015      2.03483      0.25308         0.075174      0.004646      0.093953
O	      4.38029      4.06223      2.19511        -0.046731     -0.247228      0.073724
O	      6.32841      2.03483      2.15606        -0.071530     -0.004628     -0.092311
O	      4.20645      0.00640     -2.00478         0.140939      0.005754     -0.141378
O	      6.54166      2.03115     -1.81331         0.139278      0.012011      0.142586
O	      6.38847      0.00735      0.21419         0.046982      0.246517     -0.075329
O	      4.22718      2.03851      4.22245        -0.139338     -0.013359     -0.140731
