# total energy = -102.26013510 eV
 
CRYSTAL
PRIMVEC
-0.000805 4.048663 0.001151 
4.210525 -0.002225 4.161769 
4.335048 -0.001796 -4.285675 
PRIMCOORD
16 1
Li	      0.20132      4.04447     -0.10116        -0.007263     -0.000545      0.021009
Li	      2.07958      2.03072     -0.03067         0.016959      0.004402      0.020415
Li	      4.04682      4.03670      0.04668         0.029424     -0.000512     -0.005303
Li	      2.24824      4.03755      1.81504        -0.007791      0.006742      0.008313
Ti	      6.43583      2.21988     -0.09653         0.013322      0.326430     -0.039403
Ti	      4.36155      1.84921     -2.15023         0.085623     -0.273626      0.017449
Ni	      4.16307      2.00145      2.02013        -0.019469      0.004534      0.017094
Ni	      2.07025      4.04618     -1.99414         0.071526     -0.009721     -0.077151
O	      2.12927      0.00426     -0.05145         0.003725     -0.000214      0.175387
O	      4.43987      2.01638     -0.17825         0.085646      0.005972     -0.139383
O	      4.25801      4.02918      2.04580        -0.122278     -0.010534      0.004496
O	      6.48392      2.01709      1.91279         0.060023     -0.001741     -0.086889
O	      4.27675      0.01993     -2.15272         0.043780      0.309935     -0.017589
O	      6.32998      2.01511     -2.07377        -0.153150      0.017453      0.104827
O	      6.41661      4.03578     -0.01442        -0.000568     -0.374201     -0.089870
O	      8.39280      2.01857      0.00299        -0.099507     -0.004373      0.086600
