# total energy = -102.30581881 eV
 
CRYSTAL
PRIMVEC
-0.000274 4.069479 -0.000267 
4.182151 -0.000680 4.182413 
4.358922 -0.000028 -4.358742 
PRIMCOORD
16 1
Li	      0.15571      4.05886     -0.15568        -0.003695      0.004678      0.013008
Li	      2.14691      2.04585     -0.04507         0.000065      0.004323      0.002090
Li	      4.11512      4.05852      0.06730         0.013003      0.004655     -0.004618
Li	      4.22581      2.04552      2.05871         0.001131      0.003923      0.000074
Ti	      6.40044      1.90829     -0.12849        -0.002646     -0.181129     -0.004719
Ti	      4.31875      1.90867     -2.22905        -0.004478     -0.182360     -0.004923
Ni	      2.25244      4.06559      1.93423        -0.066910      0.001649      0.060097
Ni	      2.02275      4.06591     -2.01846         0.062496      0.001728     -0.066267
O	      2.13656      0.01449     -0.04189         0.001776      0.001429     -0.003847
O	      4.45489      2.06632     -0.27686         0.098327     -0.016616     -0.085367
O	      4.22901      0.01417      2.04818        -0.007039      0.000989      0.001329
O	      2.29947      2.05184     -2.29630         0.078770     -0.027263     -0.090102
O	      4.31545      0.04708     -2.22602         0.003809      0.215688      0.001771
O	      6.33336      2.05149     -2.14783        -0.089655     -0.027374      0.078612
O	      6.40358      0.04694     -0.13180         0.001211      0.212527      0.003792
O	      8.35275      2.06597      0.00769        -0.086165     -0.016846      0.099072
