# total energy = -103.18440409 eV
 
CRYSTAL
PRIMVEC
0.000011 4.087843 0.000483 
4.239596 0.000690 4.210804 
4.239685 -0.000676 -4.210817 
PRIMCOORD
16 1
Li	      4.22552      4.08427     -4.19088         0.027904      0.000261      0.010854
Li	      2.11854      2.04218      0.13551         0.000332     -0.000863      0.022015
Li	      4.25549      4.08497      0.02089        -0.027647      0.000873      0.011147
Li	      2.11787      4.07740      1.92507         0.001479     -0.003963      0.003525
Ti	      6.36095      1.93843     -0.15046        -0.002960     -0.067578     -0.213505
Ti	      2.12112      4.07602     -1.89619        -0.001529     -0.009437      0.460009
Ni	      4.20787      2.05267      2.09499        -0.032814     -0.002414     -0.013832
Ni	      4.27310      2.05194     -2.11508         0.033333     -0.002386     -0.012541
O	      2.12091      0.00288     -0.07864        -0.000440     -0.005703     -0.450607
O	      4.43099      2.06019      0.01328         0.145293     -0.004523     -0.032298
O	      4.41974      0.00833      2.10159         0.125087      0.000659      0.024300
O	      6.36075      2.04960      2.05950        -0.001037      0.009302     -0.018349
O	      4.06261      0.00762     -2.10915        -0.123437     -0.000258      0.023001
O	      6.36044      2.04089     -2.04762        -0.001200     -0.015572      0.226116
O	      6.36090      0.03558      0.05767         0.000066      0.105054     -0.008867
O	      8.29103      2.06016      0.01314        -0.142431     -0.003452     -0.030968
