# total energy = -103.53257780 eV
 
CRYSTAL
PRIMVEC
4.200154 -0.010590 4.152597 
-0.010642 4.200105 -4.152549 
-0.010659 4.200207 4.152651 
PRIMCOORD
16 1
Li	     -0.01835      8.39455      0.00178        -0.000452     -0.000691     -0.003589
Li	      2.09162      2.09728     -0.00473        -0.002067     -0.001600      0.005849
Li	      2.08461      4.19092     -2.07599         0.006904      0.003719     -0.001549
Li	     -0.00220      2.09645      2.07485         0.000124      0.004679      0.004058
Ti	      2.10237      2.09014      4.15341         0.014989      0.010729     -0.004772
Ti	      4.18686      4.19614      4.15437        -0.012553     -0.003126     -0.004408
Ni	      4.18242      6.28680      6.22911        -0.001684      0.004379      0.004699
Ni	      2.08829      4.19229      2.07720         0.001787     -0.005184      0.002240
O	      4.10764      2.17169      4.16621        -0.100930      0.088581      0.100975
O	      4.15524      4.15264      2.19608         0.095312      0.097198      0.132228
O	      2.12603      2.12563      2.19567        -0.097204     -0.098965      0.133563
O	      2.00219      4.27754     -0.01212        -0.089337      0.092909     -0.104009
O	      0.02167      4.23004      1.95848        -0.098883     -0.097391     -0.133324
O	      0.06777      6.21134     -0.01291         0.087512     -0.098097     -0.102212
O	      2.17350      4.10624      4.16667         0.097362     -0.094154      0.100557
O	      2.04840      6.25897      1.95799         0.099120      0.097017     -0.130305
