# total energy = -103.21158522 eV
 
CRYSTAL
PRIMVEC
4.174568 0.008295 4.202361 
0.008736 4.173719 -4.202832 
0.008171 4.173355 4.202454 
PRIMCOORD
16 1
Li	      0.08473      4.16884      4.20609        -0.004419      0.005157     -0.001801
Li	      2.08308      2.17125      0.00319         0.005848     -0.000330     -0.001280
Li	      2.08565      4.17108     -2.09932         0.002351      0.003787      0.000286
Li	      2.08533      4.17140      2.10345         0.000048      0.000241     -0.001415
Ti	      2.10134      6.13996      0.00222        -0.013651     -0.171049     -0.004091
Ti	      4.05399      4.18665      4.20471        -0.166228     -0.011000      0.001025
Ni	      0.01032      2.09714     -2.09917        -0.005388     -0.009908      0.001412
Ni	      0.00962      2.09470      2.10378        -0.000492      0.011970     -0.002020
O	      4.12158      2.15749      4.20465        -0.051868      0.076104     -0.001506
O	      0.01551      4.18114     -1.94983        -0.007110     -0.008939      0.127593
O	      2.09472      2.10367      2.25347        -0.005077     -0.022064      0.125670
O	      2.03193      4.26372      0.00156        -0.050101      0.244166      0.001921
O	      0.01539      4.18136      1.95203        -0.008519     -0.010522     -0.116027
O	      0.07229      6.20707      0.00226         0.068743     -0.053408     -0.002271
O	      2.17724      4.11636      4.20397         0.248958     -0.035959      0.005301
O	      2.10414      6.27679      1.95423        -0.013095     -0.018246     -0.132797
