# total energy = -88.10273612 eV
 
CRYSTAL
PRIMVEC
0.026205 2.082611 2.195740 
2.047278 -2.056369 -0.000098 
10.782093 12.880638 0.029102 
PRIMCOORD
16 1
Li	      4.43895      2.41134     -2.58721         0.016201      0.017501     -0.031882
Li	      4.35220      6.40782     -2.27996        -0.010771     -0.008614      0.029127
Li	      8.53047      6.53233     -6.76014        -0.010863     -0.019615     -0.023246
Li	      8.56566     10.65695     -6.64238         0.004510      0.009686      0.044727
Mn	     10.72240     12.82131    -11.10389         0.028661      0.027326     -0.011388
Mn	      2.17222      2.16897     -0.15035         0.014097      0.000178      0.003893
Ni	      6.44034      6.46472     -4.53826        -0.002180     -0.002027     -0.001120
Ni	     10.59286     10.64579     -8.85119         0.034236      0.039942     -0.052189
O	     10.72218     12.82874     -9.00380         0.025344      0.022609      0.001022
O	      8.52674      8.57229     -6.70092         0.004547      0.002346     -0.005080
O	     10.70361      8.70748     -9.07376        -0.122532     -0.121134      0.085134
O	      6.31325      8.38699     -4.46364         0.141069      0.151913     -0.065901
O	      4.34818      4.36222     -2.35908        -0.012688     -0.011966     -0.011156
O	      6.56823      4.54296     -4.61771        -0.137325     -0.148614      0.062904
O	      2.16669      0.11371      0.09012         0.048067      0.054469     -0.033368
O	      2.04301      4.08679     -0.05377        -0.020373     -0.014002      0.008523
