# total energy = -102.95395804 eV
 
CRYSTAL
PRIMVEC
4.045181 -0.011428 4.216891 
0.004241 4.177784 -4.232856 
-0.009878 4.160565 4.215021 
PRIMCOORD
16 1
Li	      0.00209      0.00187      0.00187        -0.003204     -0.002768      0.001575
Li	      2.02319      2.08342     -0.00350        -0.000023      0.000917     -0.003670
Li	      2.02534      4.17168     -2.12146        -0.001756      0.002720     -0.000668
Li	      2.01852      4.16426      2.10073        -0.001462     -0.001490      0.001826
Ti	      4.04241      6.24776      2.09414         0.000749     -0.000982      0.001989
Ti	      4.04073      4.15810      4.20968        -0.001738     -0.000118     -0.001110
Ni	      4.04558      2.07811      2.10255         0.001065     -0.000721     -0.002079
Ni	      2.02060      6.25244     -0.01496        -0.001261      0.003076     -0.000293
O	      0.02807      2.13306      0.06030         0.106930      0.071631      0.118824
O	      4.04215      4.23571      2.18388         0.003318      0.123099      0.073874
O	      1.95098      2.07787      2.14242        -0.172908      0.000584     -0.107762
O	      1.90809      4.20745     -0.00891        -0.138594     -0.132502      0.000192
O	      4.03894      4.08087      6.23641        -0.002280     -0.124581     -0.070283
O	      4.00855      6.19494      4.14300        -0.109015     -0.072528     -0.118688
O	      2.12759      4.12040      4.21238         0.142583      0.131203      0.000028
O	      2.08496      6.24980      2.06088         0.177594      0.002460      0.106244
