# total energy = -101.17278144 eV
 
CRYSTAL
PRIMVEC
4.146145 0.010888 4.168084 
0.000635 4.138777 -4.157576 
0.011034 4.148851 4.168092 
PRIMCOORD
16 1
Li	      4.01640      4.16184      0.03762        -0.006568     -0.005472     -0.002688
Li	      2.09084      6.06871      4.19960        -0.011062      0.011184      0.000217
Li	      2.07490      0.03485      2.07898        -0.004738      0.002246     -0.023758
Li	      2.10586      4.15459      2.04967        -0.004618     -0.002978      0.023445
Ti	      0.14704      2.17924     -1.98906         0.184713      0.177883      0.049943
Ti	      0.10902      2.22973      2.17189         0.174441      0.195258      0.050221
Ni	      2.07622      2.09480      4.15988         0.014419      0.011054      0.010049
Ni	      0.01285      4.14920     -0.00389        -0.009277      0.000914      0.014490
O	      0.02115      2.04426     -0.05717         0.105640     -0.075403     -0.094459
O	      4.14207      4.04612      2.06532         0.021326     -0.222427     -0.071622
O	      1.96493      2.07720      2.05951        -0.214258      0.019075     -0.077207
O	      1.99702      4.25178      0.00405         0.148110     -0.141743     -0.001917
O	      4.14408      4.10368      6.26519         0.014712     -0.222136      0.109344
O	      4.11953      6.25090      4.11315        -0.077662      0.102052     -0.088419
O	      2.17472      4.07734      4.16950        -0.130288      0.137185     -0.002999
O	      2.02010      6.21636      2.10392        -0.204890      0.013308      0.105360
