# total energy = -50.68533862 eV
 
CRYSTAL
PRIMVEC
2.098755 2.098860 -0.000027 
-2.098819 2.098924 0.000121 
-0.000287 0.000211 8.026357 
PRIMCOORD
8 1
Li	     -1.04798      3.14899      1.09628        -0.005957     -0.000012     -0.019653
Li	      1.04684      1.05228      4.92107         0.005114     -0.005123      0.024001
Ti	      1.04896      3.14526      7.02204        -0.001596      0.006904     -0.019275
Ni	     -1.05025      1.05279      3.00870        -0.001736     -0.003342      0.004298
O	      1.04802      1.05260      3.00930         0.004626     -0.002171     -0.011171
O	     -1.05023      3.14684      7.02217         0.001830      0.008058     -0.002106
O	     -1.04938      1.05041      0.86380        -0.002313     -0.001124     -0.256016
O	     -1.05052      1.05120      5.15264         0.000031     -0.003190      0.279923
