# total energy = -51.33597303 eV
 
CRYSTAL
PRIMVEC
2.118520 2.118631 -0.000179 
-2.100955 2.100644 3.936877 
2.100367 -2.100897 3.936680 
PRIMCOORD
8 1
Li	      1.06312      1.05684      0.98235         0.001858      0.007473      0.007223
Li	      1.06023      1.05985      4.91972         0.004914      0.001742      0.003846
Ti	      1.05596     -1.04703      2.95264        -0.000533     -0.001236     -0.001329
Ni	     -1.04775      1.05049      2.95186         0.001370     -0.000549     -0.003744
O	      1.12081      1.00124      2.95170         0.116429     -0.119398     -0.001046
O	      1.00312      1.11853      6.88874        -0.116181      0.115030     -0.002932
O	      1.05406     -1.04897      4.85818        -0.005481     -0.003439     -0.266518
O	     -1.04729      1.05096      4.98241        -0.002376      0.000378      0.264500
