# total energy = -51.03169475 eV
 
CRYSTAL
PRIMVEC
2.104428 2.104323 -0.000010 
-4.277981 4.277778 0.000024 
0.000000 -0.000017 3.971921 
PRIMCOORD
8 1
Li	     -0.93054      3.04071      0.99316        -0.012971      0.011763      0.008009
Li	      0.90742      1.20276      0.99322         0.012526     -0.012451      0.007582
Ti	     -3.20165      3.20942      2.85205        -0.005532      0.004014     -0.331394
Ni	     -1.06397      1.06982      2.99441         0.002203     -0.002435     -0.001409
O	     -1.18876      3.29913      3.00019        -0.112759      0.110732     -0.019485
O	     -3.11227      5.22265      3.00023         0.114398     -0.112782     -0.020338
O	     -3.20267      3.20885      1.04092         0.002205      0.000863      0.359878
O	     -1.06389      1.06972      1.00808        -0.000070      0.000297     -0.002843
