# total energy = -50.46413473 eV
 
CRYSTAL
PRIMVEC
0.011361 4.304280 -0.000123 
-0.001376 -0.000427 3.925869 
4.250767 0.011172 -0.000922 
PRIMCOORD
8 1
Li	      1.03085      1.11973      0.98652         0.006181      0.017181     -0.016679
Li	      3.22502      3.19333      0.98290         0.013498      0.000351      0.000123
Ti	      3.05530      0.93096      2.96964        -0.161090     -0.198566      0.026068
Ni	      1.05934      3.21305      2.94217        -0.010113      0.008326      0.002541
O	      1.17885      1.08571      2.94447         0.180902     -0.041962      0.008340
O	      3.19919      3.37208      2.94281        -0.024524      0.237866      0.016246
O	      1.07120      3.23057      0.97977         0.007722      0.003726      0.007605
O	      3.22746      1.13042      0.97066        -0.012576     -0.026923     -0.044244
