# total energy = -100.51384010 eV
 
CRYSTAL
PRIMVEC
2.074355 2.074374 -0.000145 
-2.074360 2.074380 0.000027 
-0.000579 -0.000486 16.924453 
PRIMCOORD
16 1
Li	     -1.03515      3.11286      1.15967        -0.002605      0.000196     -0.002888
Li	      1.03700      1.03905      5.29300         0.000272      0.000358      0.003973
Li	      1.03611      1.03751      9.42258         0.000768     -0.000067     -0.013922
Li	      1.03657      1.03689     13.75142         0.001223     -0.000502      0.007005
Ti	      1.03650      3.11076     11.68962        -0.000375      0.000962     -0.604886
Ti	     -1.03709      1.03720     15.81272         0.000709      0.001236      0.621735
Ni	     -1.03655      1.03887      3.30284        -0.000967     -0.001568     -0.074098
Ni	     -1.03764      1.03905      7.28218         0.000021     -0.001281      0.079299
O	      1.03772      1.03881      3.06901        -0.000129     -0.000588      0.016856
O	      1.03673      1.03903      7.51386         0.000079     -0.000900     -0.015584
O	     -1.03789      3.11083     11.79559        -0.000244      0.001311      0.025314
O	     -1.03704      3.11172     15.70727        -0.000742     -0.000971     -0.030745
O	     -1.03607      1.03870      0.68398         0.000375     -0.001223     -0.593201
O	     -1.03748      1.03902      5.29292         0.000310      0.001762     -0.010654
O	      1.03608      3.11154      9.89362         0.000146     -0.000068      0.606023
O	      1.03664      3.11088     13.75197         0.001160      0.001343     -0.014228
