# total energy = -101.85816172 eV
 
CRYSTAL
PRIMVEC
2.139759 2.139826 0.000052 
-2.166582 2.166797 3.923832 
6.492340 -6.492384 3.915405 
PRIMCOORD
16 1
Li	      1.24563      0.89803      1.02490        -0.005280      0.005243     -0.006354
Li	      0.89573      1.24801      4.86296         0.003291     -0.004942      0.003921
Li	      3.25098     -1.10894      4.88005        -0.014264      0.015246     -0.001798
Li	      5.38200     -3.23988      4.92132         0.016186     -0.015019      0.002618
Ti	      3.21479     -3.21077      2.86865        -0.133435      0.135372     -0.370371
Ti	      3.28034     -3.27623      6.93269         0.130514     -0.128875      0.382909
Ni	     -0.97983      0.98302      2.94790        -0.066378      0.067413     -0.067358
Ni	      0.98122     -0.97773      2.93958         0.066947     -0.066737      0.064337
O	      1.07049      1.07267      2.94390         0.000073     -0.002400     -0.000096
O	      3.40576     -1.26353      2.93373         0.163135     -0.163854     -0.005677
O	      5.39860     -3.25863      2.93891         0.003701     -0.003310      0.000149
O	      5.22747     -3.08506      6.86793        -0.166692      0.164551      0.005248
O	      5.33866     -5.33699      4.83399        -0.004309      0.007124     -0.494107
O	      1.08409     -1.08053      0.98185        -0.000864     -0.000822     -0.000507
O	      1.15439     -1.15174      4.96838         0.006511     -0.007470      0.477355
O	      3.24636     -3.24425      4.90044         0.000865     -0.001518      0.009732
