# total energy = -102.15129928 eV
 
CRYSTAL
PRIMVEC
0.000081 4.172294 -0.000052 
-6.419439 2.086023 3.979663 
2.120127 -2.086154 3.948841 
PRIMCOORD
16 1
Li	     -3.21637      1.04281      4.95755        -0.001244      0.000726      0.003378
Li	     -0.91667      3.12894      4.95443        -0.004833     -0.000753     -0.000876
Li	     -5.51530      3.12922      4.96018         0.002808     -0.003104      0.004933
Li	     -1.06712      3.12861      0.99326         0.002015      0.000451      0.002854
Ti	     -3.09983      3.13099      2.95562         0.176317     -0.000594     -0.238963
Ti	     -3.33269      3.12978      6.95978        -0.175975      0.000839      0.244910
Ni	      1.00759     -1.04339      2.96976        -0.010276      0.002256     -0.076740
Ni	     -1.02089      1.04286      2.96619         0.013578     -0.002051      0.070466
O	     -3.14762      1.04202      6.91457         0.064914     -0.000105     -0.001709
O	     -3.28491      1.04140      3.00085        -0.065315      0.000137     -0.000091
O	      1.16338      1.04275      2.92856         0.242893     -0.000815     -0.005642
O	     -1.17605      3.12885      3.00701        -0.248073      0.000316      0.006871
O	     -3.21637      3.12850      4.95749         0.001876      0.000653      0.000712
O	     -1.07533      1.04241      5.05262         0.000797      0.002261      0.364072
O	     -5.35707      5.21482      4.86310         0.001661      0.000830     -0.375628
O	     -1.06646      1.04305      0.99338        -0.001144     -0.001049      0.001453
