# total energy = -102.33185411 eV
 
CRYSTAL
PRIMVEC
2.114513 2.114340 -0.000001 
2.121868 -2.121725 7.859644 
4.243826 -4.243470 0.000052 
PRIMCOORD
16 1
Li	      5.30113     -3.18501      0.98210        -0.002302     -0.002028      0.003264
Li	      3.17689     -1.06343      0.98194         0.001413      0.001138      0.004093
Li	      3.30524     -1.19045      4.91157        -0.002793      0.001553      0.002821
Li	      5.17144     -3.05849      4.91175         0.004565      0.000798      0.002585
Ti	      1.06143     -1.05768      2.93840        -0.000195      0.002328     -0.145554
Ti	      7.41753     -3.18900      6.88680        -0.000818      0.000665      0.142150
Ni	      5.29530     -1.06719      2.95633        -0.000805     -0.000753     -0.062885
Ni	      3.18125     -3.18100      6.86798         0.002355     -0.003842      0.061396
O	      5.38233     -3.26799      2.94176         0.116804     -0.121067      0.020887
O	      3.09460     -0.98131      2.94156        -0.118797      0.118215      0.020142
O	      3.09503     -0.98060      6.88217        -0.123095      0.120291     -0.020659
O	      5.38208     -3.26824      6.88255         0.121502     -0.119479     -0.023531
O	      5.29566     -1.06756      0.92120         0.001403     -0.000335     -0.303693
O	      3.17388      1.05469      1.04331        -0.000257      0.002140      0.296938
O	      7.41776     -3.18891      4.91157         0.000446      0.000120      0.002794
O	      5.29572     -1.06734      4.91214         0.000573      0.000255     -0.000747
