# total energy = -90.24667575 eV
 
CRYSTAL
PRIMVEC
0.000002 2.049226 2.047570 
4.234841 -0.000059 0.000057 
0.000145 8.560494 -8.552655 
PRIMCOORD
16 1
Li	      4.23449      2.42488     -2.41298         0.000110     -0.012888      0.018650
Li	      2.11706      4.41094     -2.35390         0.000319     -0.028569      0.028972
Li	      2.11710      6.31946     -4.26263        -0.000293     -0.004932      0.005442
Li	      4.23451      6.20740     -6.19699        -0.000171     -0.026782      0.025299
Mn	      4.23457      8.50884     -8.49931        -0.000000      0.064545     -0.066564
Mn	      2.11704      2.18640     -0.12978         0.000190      0.034676     -0.036345
Ni	      4.23451      4.28230     -4.27295         0.000190     -0.016311      0.014429
Ni	      2.11712      8.35793     -6.29895        -0.000027      0.108823     -0.108407
O	      2.11706      6.45149     -6.44011        -0.000284     -0.153546      0.158437
O	      4.23454      8.61191     -6.55292        -0.000102      0.010086     -0.008056
O	      2.11708      4.28466     -4.27612        -0.000097      0.008485     -0.008896
O	      4.23454      6.19196     -4.13452        -0.000236      0.157731     -0.160617
O	      2.11707      2.05407     -2.03890         0.000155      0.016198     -0.003442
O	      4.23448      4.39501     -2.33637         0.000645     -0.107904      0.109277
O	      2.11701      2.14773      1.94492        -0.000015     -0.019986      0.008412
O	      4.23445      1.92384      0.12385        -0.000383     -0.029625      0.023411
