# total energy = -102.24776250 eV
 
CRYSTAL
PRIMVEC
2.095863 2.095799 3.948578 
-4.213861 0.009843 3.954640 
4.223847 -4.223979 0.000193 
PRIMCOORD
16 1
Li	      0.92828     -3.18066      4.94793         0.006222     -0.009028     -0.008720
Li	      1.06235      1.17681      4.93338         0.012975     -0.008232      0.004805
Li	     -1.06768     -1.18469      4.94682        -0.010599      0.007373     -0.004192
Li	      3.28793     -1.04920      4.93322        -0.005216      0.011795      0.007891
Ti	     -1.03281      1.07886      6.86147        -0.006033     -0.004963     -0.304408
Ti	      1.03265     -1.07973      3.01727         0.007864      0.009755      0.301125
Ni	      1.03148     -1.08115      6.91567        -0.010787     -0.007879     -0.083769
Ni	      3.18578     -3.15001      2.96540         0.009779      0.008050      0.079346
O	      1.14131      0.95297      2.96344         0.128299     -0.130754     -0.001796
O	     -1.05349     -1.05136      2.96570        -0.003808     -0.003901      0.002793
O	      3.06491     -0.97078      2.96312        -0.128812      0.129091     -0.000931
O	      1.06066     -3.16583      2.96696        -0.002350     -0.001276     -0.005963
O	      1.02069     -1.09145      4.85962         0.008428      0.008499     -0.394472
O	      3.16774     -3.16832      0.98903        -0.003229     -0.000585     -0.000844
O	     -1.02878      1.08377      5.01994        -0.003869     -0.006957      0.409245
O	      1.05516     -1.05694      0.99028         0.001137     -0.000989     -0.000110
