# total energy = -101.79534052 eV
 
CRYSTAL
PRIMVEC
-0.000117 4.175237 -0.000040 
-4.175610 0.000117 0.000287 
-2.088361 2.087550 7.984635 
PRIMCOORD
16 1
Li	     -3.13507      5.22273      4.99053         0.010603     -0.005332     -0.006871
Li	     -1.04468      3.12991      0.99818         0.010172      0.012657     -0.005236
Li	     -5.21721      3.13551      4.98870        -0.007956     -0.008405      0.006135
Li	     -3.12817      1.04468      0.99643        -0.016716      0.001336      0.006174
Ti	     -1.05310      1.04767      2.97614        -0.024819     -0.002635     -0.267152
Ti	     -5.20965      5.21813      7.00276         0.030661     -0.004762      0.274135
Ni	     -3.13280      3.13444      3.04535        -0.005729     -0.001090     -0.110596
Ni	     -3.12768      3.13096      6.93618        -0.009984      0.006488      0.096139
O	     -3.13750      5.21877      7.00214        -0.021532      0.008177     -0.025793
O	     -1.04508      3.13456      2.97705         0.002260     -0.007723      0.023599
O	     -5.21778      3.13339      7.00097        -0.006200      0.006639     -0.016498
O	     -3.12757      1.04678      2.97718         0.018069     -0.002230      0.023340
O	     -3.13608      3.13233      4.99024         0.015222      0.005859      0.004798
O	     -1.04254      1.04702      1.12533         0.001553     -0.007280      0.364228
O	     -5.22240      5.22120      4.98874         0.008516      0.000225      0.006886
O	     -3.13271      3.13411      0.86889        -0.004120     -0.001924     -0.373288
