# total energy = -102.27916427 eV
 
CRYSTAL
PRIMVEC
2.128997 2.128152 -0.000029 
-4.228294 4.226411 3.949533 
4.228166 -4.226680 3.949780 
PRIMCOORD
16 1
Li	     -1.05191      3.17332      4.88781        -0.000235      0.008821     -0.005648
Li	      1.06162      1.06523      0.98659         0.000445     -0.001965     -0.000419
Li	      1.06485      1.06614      4.93595        -0.003969     -0.004372      0.000771
Li	      3.17340     -1.04789      4.98439         0.005659     -0.004229      0.007874
Ti	     -1.00858      1.01408      6.91106         0.086129     -0.083113      0.009126
Ti	      3.13619      1.11642      2.96060        -0.082152      0.085351     -0.001463
Ni	      1.00364      3.24889      2.96079         0.044175     -0.045214      0.002867
Ni	     -0.97961      5.23203      2.96168        -0.044414      0.044632      0.000379
O	      3.17505     -1.05097      2.96110        -0.001619     -0.002337     -0.002137
O	      1.14717      0.97788      2.96088         0.146327     -0.146863     -0.000828
O	      0.97769      1.14974      6.91161        -0.151997      0.143784     -0.009623
O	     -1.05242      3.17633      2.96139         0.000103      0.000401     -0.004235
O	      3.17655      1.07636      1.07261         0.002743      0.001444      0.289702
O	      5.30421     -1.04815      4.84991         0.001598     -0.001873     -0.287872
O	      1.07618      3.17772      5.02238         0.001403      0.001415      0.284181
O	      3.17723      1.07664      4.84953        -0.004195      0.004119     -0.282674
