# total energy = -101.41198112 eV
 
CRYSTAL
PRIMVEC
2.217581 2.217376 -0.000034 
-9.376476 9.375822 0.000874 
-0.000100 -0.000013 3.789439 
PRIMCOORD
16 1
Li	     -6.25183      8.39693      0.94879         0.008428     -0.018705     -0.000400
Li	     -3.55616      5.82114      0.94825         0.005556      0.000194      0.003013
Li	     -0.98043      3.12534      0.94837        -0.019071      0.010615      0.000021
Li	      1.11646      1.11750      0.94788        -0.005908     -0.004485     -0.000472
Ti	     -1.37923      5.60524      2.84309         0.007114     -0.261504      0.001536
Ti	     -3.77036      7.99804      2.84357        -0.281889      0.001211     -0.000446
Ni	      1.25192      3.14681      2.84249        -0.105244      0.100905      0.001874
Ni	     -6.23087     10.62893      2.84329         0.098376     -0.102205      0.000935
O	     -5.59397      7.77066      2.84374         0.345520     -0.030958     -0.002095
O	     -3.31861      6.05727      2.84320         0.034291      0.056303      0.000078
O	     -1.60690      3.78322      2.84446        -0.024647      0.321563     -0.008465
O	      1.08871      1.09034      2.84252        -0.001534     -0.006350      0.000344
O	     -5.92582     10.29899      0.94861         0.029608     -0.050373      0.000109
O	     -5.64324      5.78677      0.94887        -0.022506     -0.021877     -0.001288
O	     -3.59009      3.73331      0.94856        -0.021584     -0.022605      0.004309
O	      0.92136      3.45177      0.94783        -0.046510      0.028270      0.000946
