# total energy = -101.59163297 eV
 
CRYSTAL
PRIMVEC
0.009118 0.009146 3.993674 
2.045295 6.296750 0.019592 
-4.252245 4.251678 0.000008 
PRIMCOORD
16 1
Li	     -1.08663      3.17275      1.00438        -0.001190      0.001647     -0.001054
Li	     -1.28664      7.54646      1.01145         0.020214     -0.018361      0.000787
Li	     -3.20606      5.29194      1.00444         0.002377     -0.002100      0.000056
Li	      1.16871      5.09241      1.01158        -0.020252      0.017028     -0.000440
Ti	     -1.01417      1.11139      3.13289        -0.039728     -0.034298      0.333572
Ti	     -1.10290      5.27563      2.87125         0.058972      0.061603     -0.325107
Ni	     -3.21475      7.41625      3.00770         0.048297      0.044551     -0.003803
Ni	     -1.14648      9.48252      3.00917        -0.049754     -0.047875      0.003674
O	     -1.07926      3.16125      3.00031         0.002835     -0.008964      0.003014
O	     -0.98647      7.24672      3.00821         0.115006     -0.139418      0.000916
O	     -3.21737      5.29915      3.00034        -0.012649      0.000929      0.003374
O	      0.86822      5.39150      3.00809        -0.138906      0.115740      0.002455
O	     -1.13694      5.24220      1.05340        -0.006065     -0.010398      0.320574
O	     -1.14844      9.48156      1.01449         0.012712      0.013303     -0.004516
O	     -3.22428      7.40662      1.00931        -0.011046     -0.013344      0.002389
O	     -1.03343      1.09268      0.95414         0.019176      0.019957     -0.335892
