# total energy = -101.50446607 eV
 
CRYSTAL
PRIMVEC
-0.000006 0.007698 3.973307 
4.145071 -0.000041 -0.000007 
0.000109 8.674331 0.017020 
PRIMCOORD
16 1
Li	      1.03637      1.28377      1.00433         0.001109     -0.007652     -0.000165
Li	      1.03467      5.18958      0.96553         0.000554      0.018614      0.008856
Li	      3.10896      3.06094      0.98869         0.001066      0.006896     -0.004112
Li	      3.10705      7.82828      1.04305         0.000508     -0.017041     -0.005197
Ti	      1.03045      7.68934      3.13632        -0.003898      0.271012      0.280038
Ti	      3.10306      5.33625      2.84527        -0.003922     -0.273670     -0.275593
Ni	      1.03601      3.17745      2.98970         0.001526     -0.015320     -0.007288
Ni	      3.10849      1.17764      2.97594         0.001566      0.010478      0.011880
O	      1.03686      0.89295      2.98086        -0.001559     -0.306936      0.018647
O	      1.04040      5.54980      2.96948         0.002998      0.045051     -0.004559
O	      3.10941      3.45759      2.98542        -0.001726      0.302656     -0.024638
O	      3.11300      7.47363      3.01343         0.003170     -0.042601     -0.003416
O	      1.03650      3.26226      1.00050         0.001262     -0.003937     -0.004364
O	      1.03769      7.55619      0.98819        -0.002022      0.022899     -0.302778
O	      3.11013      5.45914      1.02048        -0.001264     -0.015557      0.309651
O	      3.10911      1.08105      0.99201         0.000633      0.005108      0.003037
