# total energy = -149.86095861 eV
 
CRYSTAL
PRIMVEC
2.076139 2.076141 0.000027 
-2.076169 2.076171 -0.000030 
0.000296 -0.000094 25.176257 
PRIMCOORD
24 1
Li	      1.03839      1.03887      1.26721         0.000328      0.000774     -0.074038
Li	      1.03804      1.03813      5.38849         0.000390      0.000037     -0.000555
Li	     -1.03736      3.11380      9.30173        -0.001572      0.000894     -0.002131
Li	     -1.03655      3.11465     13.42031         0.000805     -0.000056      0.081070
Li	     -1.03652      3.11503     17.93273        -0.000031     -0.000343      0.005710
Li	      1.03926      1.03928     21.92745        -0.000584     -0.000843     -0.006552
Ti	     -1.03605      1.03883     15.78217        -0.002335     -0.000734     -0.654117
Ti	     -1.03705      1.03872     19.93021         0.000872      0.001138      0.000893
Ti	     -1.03705      1.03958     24.07949        -0.000499     -0.001905      0.655557
Ni	     -1.03800      1.03837      3.44367         0.000264      0.000828     -0.112498
Ni	     -1.03778      1.03789      7.34538         0.000584     -0.000122     -0.018441
Ni	     -1.03695      1.03762     11.24612         0.000778      0.000570      0.111105
O	      1.03817      1.03838      3.16004         0.000062     -0.000169      0.018197
O	     -1.03781      3.11405      7.34455         0.000060      0.000129      0.005848
O	     -1.03695      3.11378     11.52857        -0.000114      0.000284     -0.022653
O	     -1.03622      3.11494     15.97676         0.000231     -0.000015      0.007119
O	     -1.03698      3.11498     19.92989        -0.000660     -0.000570      0.000202
O	      1.03909      1.03947     23.88407         0.001020     -0.000073     -0.009751
O	     -1.03743      1.03938      0.67599        -0.000598     -0.000079     -0.647582
O	     -1.03799      1.03816      5.40538        -0.000049     -0.000460      0.051068
O	     -1.03738      1.03759      9.28370        -0.000060     -0.000065     -0.030914
O	     -1.03625      1.03867     14.00914        -0.000626     -0.000700      0.646949
O	     -1.03661      1.03888     18.00066         0.001128      0.000326      0.087947
O	     -1.03691      1.03926     21.85914         0.000608      0.001152     -0.092432
