# total energy = -151.71864080 eV
 
CRYSTAL
PRIMVEC
2.154401 2.154441 0.000005 
-2.386862 2.386938 3.803256 
9.444511 -9.444677 7.488704 
PRIMCOORD
24 1
Li	      1.51789      0.63626      0.83087        -0.019712      0.018986     -0.005877
Li	      1.05804      1.09576      4.72858        -0.000742      0.001193     -0.000425
Li	      2.98490     -0.83081      4.82270         0.012069     -0.011948      0.015068
Li	      5.94144     -3.78706      4.41432        -0.006228      0.006002     -0.007605
Li	      5.77821     -3.62430      8.47477        -0.000347      0.000140     -0.000825
Li	      8.00435     -5.85025      8.73086         0.009798     -0.010520      0.007311
Ti	      3.68031     -3.68019      6.30212        -0.135072      0.135524     -0.488995
Ti	      8.04981     -3.74123      6.57329         0.001783     -0.002234     -0.003866
Ti	     10.26532     -5.95723      6.84285         0.137475     -0.137764      0.496250
Ni	      1.35908      2.94926      2.79753        -0.104792      0.105160     -0.167570
Ni	      3.32865      0.97988      2.82667         0.000602     -0.000720      0.000994
Ni	      5.29800     -0.98960      2.85648         0.106736     -0.104870      0.169052
O	      1.16557      0.98842      2.65511         0.099042     -0.098697      0.000432
O	      3.33709     -1.18298      2.99852        -0.100226      0.098535     -0.001202
O	      3.95870     -1.80427      6.34310         0.184630     -0.185956      0.019251
O	      5.94394     -3.79020      6.49507         0.012291     -0.011223      0.000240
O	      8.00099     -5.84711      6.65099        -0.011388      0.010894     -0.002612
O	      7.60012     -5.44641     10.60520        -0.187835      0.189757     -0.013855
O	     10.02075     -5.71238      8.61067         0.008390     -0.009537     -0.618366
O	      1.00880      3.29982      4.60223        -0.020080      0.020338      0.180392
O	      3.26149      1.04699      4.85490         0.023229     -0.023529     -0.185419
O	      6.07881     -1.77014      4.53468        -0.008206      0.008420      0.608246
O	      5.80290     -1.49455      8.46380         0.011023     -0.010620      0.121849
O	      7.90943     -3.60121      8.48577        -0.012441      0.012672     -0.122467
