# total energy = -152.38242038 eV
 
CRYSTAL
PRIMVEC
-0.000025 4.110357 -0.000060 
-11.234892 -2.055277 4.021984 
2.212370 -2.055180 3.929744 
PRIMCOORD
24 1
Li	     -7.90682      1.02614      4.97332        -0.011366      0.001916      0.006473
Li	     -5.61668     -1.02899      4.98098         0.013861     -0.000335     -0.002645
Li	     -3.12365      1.02631      4.94760        -0.000394     -0.000707     -0.006335
Li	     -0.94193     -1.02879      4.89918        -0.006991     -0.000711      0.023897
Li	    -10.39855     -1.02893      5.00784         0.003619     -0.000295      0.005441
Li	     -1.34443      3.08143      1.03499         0.005110     -0.000461     -0.025147
Ti	     -5.45703      1.02624      2.94724         0.282338      0.000569     -0.365999
Ti	     -7.86802     -1.02870      3.01248         0.002424      0.001035      0.001447
Ti	     -8.06587     -1.02836      7.00817        -0.285383     -0.002923      0.361230
Ni	      0.87692     -1.02909      2.97164         0.083397     -0.000201     -0.142134
Ni	     -1.14275      1.02618      2.96702         0.001014      0.000371     -0.001574
Ni	     -3.16388     -1.02888      2.96224        -0.083198      0.004733      0.142444
O	     -7.69687     -3.08465      6.92574         0.031049      0.001911     -0.005855
O	     -7.86839      1.02590      3.01242        -0.004229     -0.003575      0.002441
O	     -5.82727     -1.02886      3.02906        -0.026875     -0.001947      0.000223
O	     -3.60911      1.02652      3.04635        -0.331585     -0.003489     -0.009761
O	      1.32061      1.02613      2.88716         0.339476      0.002153      0.010567
O	     -1.14341     -1.02897      2.96703        -0.002061     -0.002041      0.003541
O	     -7.83349     -1.02935      4.94213         0.015454      0.004317     -0.073495
O	     -5.69020      1.02619      5.01235        -0.018408     -0.002023      0.078048
O	     -3.47165     -1.02873      5.07119         0.017677     -0.001685      0.454001
O	     -1.20384      1.02645      4.96178         0.014248     -0.001554     -0.055264
O	    -10.05165      1.02588      4.88405        -0.016013      0.003122     -0.457339
O	     -1.08310      1.02599      0.97201        -0.023160      0.001820      0.055795
