# total energy = -91.31410179 eV
 
CRYSTAL
PRIMVEC
-0.000849 2.081270 2.081294 
6.080171 0.016569 -2.100844 
-2.066575 6.444882 -4.361687 
PRIMCOORD
16 1
Li	      4.07837      2.35759     -2.36224         0.024802      0.021052     -0.007700
Li	     -0.13792      4.40831     -0.24735        -0.043863     -0.002066      0.014447
Li	      4.06828      4.16287     -4.16092         0.060840     -0.008198     -0.002472
Li	     -0.03148      6.17030     -2.00184        -0.037019     -0.020425     -0.004862
Mn	      3.97119      8.52765     -4.37559         0.018125      0.019542     -0.005503
Mn	      2.06655      2.19604     -0.11674        -0.030141      0.018138     -0.034295
Ni	      2.00687      4.31417     -2.23344        -0.018197     -0.052853      0.048301
Ni	      2.00381      6.33740     -4.26427        -0.037949     -0.012158      0.034255
O	      0.09842      4.24602     -2.16335        -0.132289      0.003675     -0.009333
O	     -0.07553      1.94134      0.13126        -0.017670     -0.040339      0.044946
O	      4.07513      6.57667     -4.50725         0.100834      0.047984     -0.028227
O	      3.91945      4.29126     -2.21143         0.131010     -0.008823      0.003747
O	     -0.09444      6.64654     -4.56419        -0.106613     -0.034157      0.002884
O	      4.12559      1.95024      0.11847         0.066484      0.093877     -0.080462
O	      1.97214      6.37251     -2.21299        -0.009202     -0.007648     -0.000613
O	      2.03708      2.08494     -2.08860         0.030846     -0.017600      0.024885
