# total energy = -152.62647254 eV
 
CRYSTAL
PRIMVEC
-0.005248 -0.003309 3.962509 
2.108045 6.277040 -0.008187 
-8.610448 0.058913 0.011504 
PRIMCOORD
24 1
Li	     -5.56532      3.17881      1.01112         0.007560     -0.002560     -0.006770
Li	     -3.44759      1.06879      0.99682         0.016661     -0.005441      0.005069
Li	     -3.48850      5.40229      1.00146         0.006403      0.000712      0.002313
Li	     -0.89118      3.15119      0.97056        -0.007369     -0.005273      0.002805
Li	     -7.38656      1.10120      0.99608        -0.012284      0.002838     -0.000576
Li	      1.25410      5.09834      0.97438        -0.007472      0.000200      0.001263
Ti	     -0.99306      1.05869      2.85046         0.222518     -0.077685     -0.251436
Ti	     -1.12188      5.24449      2.84215         0.012405     -0.011424     -0.308950
Ti	     -3.35429      3.15725      3.10793        -0.196071      0.073981      0.253019
Ni	     -7.47593      3.20075      2.98559        -0.002235      0.032946      0.000554
Ni	     -5.47751      1.07642      2.98377        -0.006324     -0.029975     -0.000174
Ni	     -5.42453      5.27724      2.97936        -0.002087      0.008154      0.001862
O	     -5.24363      3.16530      2.98358         0.269692     -0.012126      0.007265
O	     -3.15853      1.02947      2.98224         0.048785     -0.002598     -0.010243
O	     -3.12134      5.12156      2.98330         0.110090     -0.167837      0.008644
O	     -1.18662      3.19123      2.96586        -0.066533      0.021694     -0.010603
O	     -7.71327      1.11254      2.98708        -0.275562      0.012266     -0.023535
O	      0.88228      5.37569      2.97623        -0.123964      0.165298     -0.014161
O	     -5.42269      5.27857      0.99860         0.013014     -0.000189      0.002597
O	     -3.22689      3.10389      0.97140        -0.025549     -0.003889     -0.274985
O	     -5.39528      1.05461      1.00291         0.010482     -0.000664      0.002231
O	     -1.11721      5.25089      1.02375        -0.003024     -0.002964      0.315253
O	      1.05318      3.16805      0.99144        -0.001071      0.000479      0.005108
O	     -1.11199      1.11622      1.01965         0.011933      0.004058      0.293447
