# total energy = -153.02713725 eV
 
CRYSTAL
PRIMVEC
2.137686 2.137706 0.000022 
-2.184798 2.184828 3.910106 
8.713569 -8.713636 7.791928 
PRIMCOORD
24 1
Li	      1.40351      0.73259      0.92254         0.002046     -0.001321     -0.021104
Li	      1.07131      1.06497      4.77097         0.016404     -0.016856      0.007276
Li	      3.28576     -1.14962      4.84896        -0.013622      0.013797     -0.009959
Li	      5.32305     -3.18695      4.86698        -0.008472      0.007399      0.010502
Li	      5.34059     -3.20467      8.81445         0.003305     -0.004335      0.004931
Li	      7.51226     -5.37602      8.89358         0.009645     -0.009521      0.019674
Ti	      3.23752      1.03706      6.77259        -0.057233      0.057018     -0.223169
Ti	      7.47345     -3.20252      6.83829        -0.061426      0.060613     -0.163729
Ti	      9.70551     -5.43206      6.98389         0.181291     -0.180684      0.418497
Ni	      1.33407      2.93982      2.88156        -0.111602      0.111365     -0.132874
Ni	      3.29084      0.98310      2.85539         0.044597     -0.044861      0.045856
Ni	      5.32361     -1.04954      6.82367         0.036689     -0.036643      0.031037
O	      1.19880      0.93745      2.80322         0.032237     -0.032339     -0.024625
O	      3.41714     -1.28077      2.87973         0.131970     -0.132377     -0.004431
O	      3.21643     -1.08023      6.84219        -0.109743      0.111035      0.005930
O	      5.47495     -3.33888      6.85647         0.120042     -0.118305      0.012662
O	      7.47097     -5.33331      6.88516        -0.013069      0.014016     -0.000096
O	      7.27366     -5.13719     10.80708        -0.187626      0.186552      0.015084
O	      9.57188     -5.29764      8.78739        -0.016332      0.015690     -0.542129
O	      1.12094      3.15286      4.75724         0.006843     -0.005838      0.109516
O	      3.31717      0.95689      4.91601        -0.002654      0.003610      0.372337
O	      5.43173     -1.15783      4.82855         0.017347     -0.017455     -0.202873
O	      7.55560     -3.28169      4.97586        -0.005079      0.002437      0.318880
O	      7.46536     -3.19129      8.80296        -0.015557      0.017001     -0.047191
