# total energy = -153.37317212 eV
 
CRYSTAL
PRIMVEC
-0.000054 4.165508 0.000052 
-10.715167 -2.082654 3.980583 
2.130884 -2.082738 3.948565 
PRIMCOORD
24 1
Li	     -7.51091      1.04197      4.95934        -0.006580     -0.000312     -0.003063
Li	     -5.32642     -1.04017      4.94377         0.008961     -0.001685      0.002878
Li	     -3.16967      1.04291      4.94773         0.010738      0.000432      0.000110
Li	     -0.91930     -1.03930      4.96348        -0.014423     -0.003270     -0.003230
Li	     -9.83151     -1.04058      4.96356         0.008034      0.000717     -0.000722
Li	     -1.11185      3.12602      0.99053        -0.002954     -0.000449      0.001409
Ti	     -3.08424     -1.04038      2.98500         0.140635      0.000571     -0.009450
Ti	     -7.39803     -1.04231      2.95041         0.107712      0.000050     -0.247078
Ti	     -7.62841     -1.04159      6.96855        -0.226050     -0.000965      0.273185
Ni	      0.98242     -1.04019      2.96995        -0.001145      0.001668     -0.088379
Ni	     -1.06812      1.04287      2.97202         0.056726     -0.001199      0.060412
Ni	     -5.32613      1.04282      2.95384         0.005450     -0.000474      0.027341
O	     -7.41327     -3.12242      6.91905         0.067108      0.002042     -0.007714
O	     -7.54975      1.04353      2.99433        -0.077060      0.004500     -0.003227
O	     -5.45559     -1.03973      2.98755        -0.128064     -0.001150      0.004280
O	     -3.24296      1.04311      2.99063         0.027518     -0.002138     -0.008115
O	      1.18410      1.04244      2.92065         0.268070      0.002431      0.009978
O	     -1.16564     -1.03981      2.99384        -0.250411      0.001584      0.005868
O	     -7.47365     -1.03975      4.95277        -0.008220     -0.001550     -0.011987
O	     -5.36758      1.04299      5.05272         0.003841      0.000702      0.350727
O	     -3.28298     -1.03975      4.86645         0.005382      0.000568     -0.236907
O	     -1.10734      1.04316      5.05108         0.008097     -0.002979      0.252484
O	     -9.63596      1.04247      4.86210         0.001411      0.001153     -0.387195
O	     -1.05828      1.04286      0.98388        -0.004774     -0.000247      0.018394
