# total energy = -152.33815751 eV
 
CRYSTAL
PRIMVEC
-0.001746 0.006971 3.965474 
2.112598 6.339166 0.010491 
-8.512877 0.020636 0.003604 
PRIMCOORD
24 1
Li	     -5.33168      3.30328      1.00105         0.004224     -0.006270      0.000446
Li	     -3.25418      1.27083      1.00517        -0.001087     -0.013309     -0.000667
Li	     -3.37570      5.13915      0.98984         0.003733      0.013895      0.002713
Li	     -1.03228      3.18895      0.98218         0.001804     -0.007950      0.002498
Li	     -7.48529      1.08753      1.02113        -0.003609     -0.002441     -0.002973
Li	      1.23908      5.08891      0.99407        -0.011205      0.007800      0.002418
Ti	     -1.14128      1.03849      3.08967        -0.040815     -0.116739      0.243770
Ti	     -1.12095      5.20845      2.83625        -0.061504     -0.018135     -0.295303
Ti	     -5.50371      1.13703      3.09116        -0.050432      0.155167      0.192542
Ni	     -7.44699      3.20626      2.97912         0.006174      0.042904     -0.002374
Ni	     -3.22053      3.20565      2.97492        -0.003232      0.000573      0.002820
Ni	     -5.32813      5.23001      2.97859        -0.001532     -0.027008      0.001538
O	     -5.31061      3.02257      2.97317        -0.031051     -0.272684      0.011166
O	     -3.07768      0.98419      2.98105         0.078220     -0.074783     -0.007600
O	     -3.04722      5.43819      2.97324         0.149911      0.073945     -0.010071
O	     -1.06808      3.23477      2.96827        -0.012204      0.066643     -0.007831
O	     -7.42416      1.05207      2.99234         0.106196      0.005200     -0.001601
O	      0.95909      5.46559      2.98056        -0.090332      0.181268      0.003461
O	     -5.33321      5.30587      0.99806         0.005374     -0.000737     -0.001595
O	     -3.18238      3.18674      0.99199         0.006724      0.009227      0.001155
O	     -5.31511      1.04730      0.96784        -0.024911      0.009191     -0.215808
O	     -1.04636      5.28775      1.02092        -0.013854     -0.035468      0.326038
O	      1.05016      3.16775      0.99331        -0.002928     -0.004707     -0.000371
O	     -1.04681      1.12158      0.95748        -0.013664      0.014418     -0.244371
