# total energy = -152.82796240 eV
 
CRYSTAL
PRIMVEC
2.123885 2.123792 0.000071 
-2.147382 2.147457 7.868788 
6.440528 -6.440175 -0.000227 
PRIMCOORD
24 1
Li	      1.21122      0.91301      1.04260        -0.004583      0.004140     -0.014779
Li	      0.91251      1.20992      4.85997         0.006197     -0.005243      0.009158
Li	      3.06553     -0.94123      1.00769         0.002864     -0.004075      0.001986
Li	      3.20473     -1.08105      4.87655        -0.009494      0.008788     -0.000016
Li	      5.36135     -3.23814      1.02573         0.010350     -0.010204     -0.000570
Li	      5.49855     -3.37704      4.89502        -0.002350      0.003605     -0.000621
Ti	      1.04462     -1.04411      6.83698        -0.137512      0.136709     -0.350544
Ti	      5.33717     -1.10445      2.95027        -0.013845     -0.007913      0.006297
Ti	      5.37340     -1.12716      6.93341         0.138025     -0.137010      0.331597
Ni	      7.56110     -3.31359      2.96761        -0.068683      0.069684     -0.063231
Ni	      1.05103      3.19626      6.88579        -0.002401      0.002661     -0.002129
Ni	      1.00387     -1.00371      2.93438         0.069250     -0.069478      0.066522
O	      1.06221      1.06140      2.95118        -0.001519      0.000974      0.001001
O	      1.20977      0.91443      6.90351         0.171275     -0.170656     -0.008744
O	      3.32341     -1.19564      2.94086         0.108757     -0.096617      0.015559
O	      3.20907     -1.08447      6.88549        -0.002344      0.000373      0.002942
O	      5.24563     -3.11791      2.96190        -0.093544      0.104884     -0.017121
O	      5.20845     -3.08487      6.86759        -0.170171      0.169172      0.013203
O	      7.44721     -3.19962      0.88561        -0.003682      0.004216     -0.455295
O	      1.03238      3.21333      4.97018         0.006382     -0.003021     -0.070371
O	      1.09203     -1.09115      0.93251        -0.007188      0.006107      0.068544
O	      1.11826     -1.11729      5.01602         0.002963     -0.004378      0.471273
O	      3.26588     -3.26552      0.99086         0.006651     -0.007642      0.036667
O	      3.17568     -3.17536      4.91258        -0.005400      0.004923     -0.041328
