# total energy = -152.64094215 eV
 
CRYSTAL
PRIMVEC
-0.000096 4.197560 -0.000091 
-6.339928 2.098932 0.018166 
2.089719 2.098576 7.923269 
PRIMCOORD
24 1
Li	     -2.98685      5.22753      1.01911        -0.020543     -0.004643      0.013227
Li	     -3.36906      5.22767      4.94827         0.023271     -0.006059     -0.012045
Li	     -1.06746      3.15307      1.04277         0.011605      0.004275      0.005809
Li	     -0.93689      3.15327      4.92462        -0.022053      0.001972     -0.001827
Li	     -5.41881      3.15314      1.04293         0.022482      0.002912      0.004128
Li	      1.05005      5.25252      4.90645        -0.012604      0.002456     -0.005528
Ti	     -1.00568      5.24587      6.89962         0.031055     -0.006485     -0.364074
Ti	     -3.17887      3.03285      2.98492         0.006117     -0.068761     -0.004260
Ti	     -3.26374      7.34447      6.99182        -0.026223     -0.006161      0.366836
Ni	     -5.34785      5.24438      3.00808        -0.013864      0.009755     -0.074388
Ni	      1.03595      3.14885      6.93601        -0.001475      0.005854      0.003767
Ni	     -1.00902      5.24408      2.95952         0.008671      0.009153      0.071171
O	     -3.17844      5.30551      2.98379        -0.004284      0.108613     -0.001623
O	     -3.07470      5.24931      6.93589         0.075452      0.002047      0.004158
O	     -1.19516      3.16164      3.00532        -0.146722     -0.026638     -0.009703
O	     -1.19269      3.15033      6.95452        -0.072930      0.005397      0.001183
O	     -5.16247      3.16172      2.96252         0.151099     -0.024688      0.002483
O	      1.03679      5.24812      6.93596        -0.004498     -0.000073      0.001046
O	     -3.15807      3.15493      0.99567         0.012381     -0.007352      0.007147
O	     -3.19886      3.15499      4.97114        -0.012022     -0.005192     -0.009297
O	     -1.03342      1.05253      0.97161        -0.024757      0.003128      0.012566
O	     -1.04105      5.24985      5.08417         0.017355      0.001245      0.466477
O	     -5.31583      5.25005      0.88339        -0.010443     -0.001516     -0.464170
O	      1.01788      3.15133      4.97739         0.012931      0.000759     -0.013084
