# total energy = -152.55715380 eV
 
CRYSTAL
PRIMVEC
2.125410 2.125120 -0.000021 
-4.260393 4.259713 3.976293 
4.261065 -4.260658 7.954400 
PRIMCOORD
24 1
Li	     -1.07430      3.20140      4.90495        -0.018633      0.018213      0.017978
Li	      0.95526      1.17242      0.93604        -0.024105      0.022969      0.026601
Li	      1.03131      1.09576      4.95638        -0.009052      0.008081     -0.008475
Li	      1.07284      1.05567      9.01209         0.018368     -0.020386     -0.016863
Li	      3.22721     -1.09915      4.98396         0.007076     -0.009057      0.008558
Li	      3.30375     -1.17500      9.00415         0.023715     -0.024595     -0.024355
Ti	     -1.06331      1.06592      6.95849        -0.001132     -0.000023     -0.006918
Ti	      3.12797      1.12198      2.95040        -0.081827      0.083762     -0.452522
Ti	      1.12979     -1.12571      6.99049         0.082558     -0.084253      0.448007
Ni	     -1.18859      1.19096      2.96852         0.101754     -0.102162      0.040092
Ni	      3.32204     -3.31925      6.97197        -0.100060      0.101774     -0.040606
Ni	      1.06714     -1.06480     10.93580        -0.000448      0.001316      0.000605
O	     -1.04136      3.16883      6.98115        -0.004033      0.004795      0.011187
O	      1.18598      0.94023      3.01904         0.141759     -0.139956      0.014268
O	      1.03983      1.08731      6.93530         0.005501     -0.003660     -0.004859
O	      1.08991      1.03736     10.91559         0.037361     -0.036769      0.022492
O	      3.07200     -0.94375      6.92123        -0.140954      0.140047     -0.016284
O	     -1.09145      3.21898      3.00160        -0.038002      0.037655     -0.026103
O	     -3.16131      3.16245      5.11962        -0.004825      0.004287      0.494011
O	      3.19725     -3.19427      8.94736        -0.001090     -0.000468      0.000843
O	     -1.05858      1.06056      5.07185         0.009258     -0.006639      0.248695
O	     -1.06837      1.07035      8.84486        -0.007569      0.008661     -0.243382
O	      1.06643     -1.06431      4.96997         0.000578     -0.000881      0.002775
O	      1.03410     -1.03162      8.79747         0.003804     -0.002714     -0.495745
