# total energy = -153.02175157 eV
 
CRYSTAL
PRIMVEC
0.000021 4.147203 0.000004 
-4.362331 -0.000010 7.927370 
4.330074 0.000029 3.947410 
PRIMCOORD
24 1
Li	     -1.09965      3.11091      4.94983        -0.000436     -0.000597      0.000117
Li	     -1.29100      3.11090      8.95425         0.003599      0.001297      0.008218
Li	      1.08121      1.03745      0.98618         0.000325     -0.000822      0.000240
Li	      1.11320      1.03730      4.96299         0.026886      0.000342     -0.017656
Li	      1.01732      1.03738      8.88417        -0.026193      0.000552      0.018609
Li	      3.42134      3.11139      4.89307        -0.001427     -0.000805     -0.010114
Ti	      1.06536      3.11062      6.92340        -0.001030     -0.000060      0.002830
Ti	     -0.92597      1.03733      2.94549         0.273596      0.000648     -0.316250
Ti	     -1.27320      1.03693      6.95462        -0.274361      0.000951      0.316438
Ni	      1.20546      3.11118      2.97034        -0.049600      0.000039      0.040535
Ni	     -3.40465      3.11103      6.92927         0.048398      0.000427     -0.041572
Ni	      3.24677      1.03762      2.96010        -0.000645      0.000198     -0.000190
O	     -0.99972      3.11140      6.90156         0.085071      0.000868     -0.004523
O	      3.24656      3.11133      2.95995         0.000028     -0.001526      0.000364
O	      0.95793      1.03763      3.00793        -0.314915     -0.000054      0.002185
O	      1.06486      1.03781      6.92352         0.001012     -0.001372      0.000030
O	     -3.15738      1.03753      6.89199         0.317133     -0.000114     -0.004175
O	     -1.19994      3.11116      2.99807        -0.085219      0.001542      0.005096
O	     -1.09974      1.03769      4.94971        -0.000443     -0.001589      0.001464
O	     -1.10387      1.03754      8.79105        -0.008260      0.000556     -0.426973
O	      1.08139      3.11140      0.98616         0.000744     -0.001818      0.001145
O	      1.06333      3.11113      5.03641        -0.021461      0.000517      0.311684
O	      1.06717      3.11117      8.81047         0.019606      0.001052     -0.312679
O	      3.23457      1.03764      5.05637         0.007593     -0.000231      0.425174
