# total energy = -152.59210207 eV
 
CRYSTAL
PRIMVEC
-0.000027 -0.000018 3.981980 
4.258629 4.258501 -0.000070 
-4.140977 8.399298 -0.000029 
PRIMCOORD
24 1
Li	     -0.81996      7.51758      0.99372        -0.023183     -0.015165     -0.007510
Li	      1.20821      1.23146      0.99394        -0.014294     -0.020398     -0.008618
Li	      1.10402      5.28432      0.99809         0.000961     -0.000573     -0.002318
Li	      0.99990      9.33810      0.99369         0.015361      0.023807     -0.006757
Li	      3.02853      3.05072      0.99388         0.020754      0.013690     -0.007270
Li	     -1.02611      3.15550      0.99814         0.002650     -0.001244     -0.002067
Ti	     -3.09447      7.35542      3.12225         0.001887      0.000626      0.350366
Ti	      3.18030      5.33519      3.09461         0.033223     -0.031652      0.304356
Ti	     -0.97373      5.23026      3.09506        -0.031518      0.031869      0.302727
Ni	      1.09520      3.16327      2.96950         0.039035     -0.039348      0.007934
Ni	      1.11209      7.40452      2.96932        -0.042025      0.042468      0.009015
Ni	     -0.96593      9.48335      2.96886        -0.001090      0.001196      0.009939
O	     -1.09303      7.24043      2.96492        -0.123768     -0.106969      0.001253
O	      0.93041      0.95865      2.96482        -0.110094     -0.122889      0.002183
O	      1.10462      5.28457      2.97228         0.003227     -0.002304     -0.004149
O	      1.27770      9.61078      2.96494         0.108608      0.124745      0.000785
O	      3.30110      3.32946      2.96486         0.117957      0.110092      0.003805
O	     -1.02556      3.15750      2.97228         0.002187     -0.003017     -0.004195
O	     -0.96646      9.48451      0.97888         0.002344     -0.001895     -0.002112
O	      1.08954      3.17008      0.98082        -0.010427      0.011759     -0.002448
O	      1.11916      7.39915      0.98055         0.008838     -0.010115      0.000263
O	     -3.09614      7.35515      0.94857         0.001109     -0.003542     -0.368837
O	      3.17719      5.34195      0.93313        -0.019870      0.013638     -0.286129
O	     -0.96859      5.22859      0.93368         0.018131     -0.014777     -0.290219
