# total energy = -153.15920590 eV
 
CRYSTAL
PRIMVEC
2.122248 2.122352 0.000011 
-2.125561 2.125705 7.886173 
6.375676 -6.376023 -0.000580 
PRIMCOORD
24 1
Li	      1.10774      1.01278      0.94916         0.003038     -0.002185     -0.008165
Li	      0.94261      1.17872      4.98515         0.012424     -0.011626     -0.000448
Li	      3.16964     -1.04836      0.92313         0.010290     -0.010148      0.005675
Li	      3.15800     -1.03690      4.95450        -0.012198      0.012084      0.004683
Li	      5.29328     -3.17235      0.96901        -0.010445      0.010770      0.002159
Li	      5.45599     -3.33509      4.95790         0.000439     -0.000047      0.000381
Ti	      3.14066      1.10267      2.96737        -0.101202      0.101456      0.108486
Ti	      3.21851     -3.21849      2.95887         0.110106     -0.109452     -0.214852
Ti	      5.30711     -1.06959      6.94225         0.030943     -0.033690      0.164950
Ni	      7.44794     -3.20499      2.96132        -0.022733      0.022096     -0.086498
Ni	      1.14580      3.09775      6.88223        -0.074011      0.076679      0.031560
Ni	      3.14352      1.10037      6.87705         0.042171     -0.040194      0.017190
O	      1.14479      0.97615      2.93604         0.164654     -0.166565     -0.004784
O	      1.09288      1.02889      6.91278        -0.009655      0.006035     -0.004431
O	      3.19335     -1.07235      2.95690         0.015714     -0.016557     -0.003709
O	      3.26371     -1.14118      6.89882         0.107667     -0.105487      0.006364
O	      5.20615     -3.08457      2.97214        -0.162771      0.159884     -0.001001
O	      5.19374     -3.07210      6.89278        -0.108959      0.110885      0.010063
O	      7.42471     -3.18210      0.94014         0.000919     -0.000927     -0.296357
O	      1.04418      3.19961      4.88769         0.002152     -0.002511      0.050719
O	      3.18701      1.05648      1.06535        -0.002908      0.002985      0.264902
O	      3.21793      1.02546      4.82097         0.003025     -0.002923     -0.361088
O	      5.31959     -1.07582      1.10332         0.005484     -0.005302      0.363557
O	      5.27246     -1.02899      4.91230        -0.004141      0.004739     -0.049355
