# total energy = -153.15972634 eV
 
CRYSTAL
PRIMVEC
-0.000906 4.198440 0.000326 
-6.324552 2.100580 -0.003034 
2.111733 2.099416 7.936355 
PRIMCOORD
24 1
Li	     -3.12361      5.24202      0.95400        -0.015862     -0.000330     -0.005046
Li	     -3.31905      5.26027      4.97711         0.039609      0.009093      0.005804
Li	     -1.07068      3.14371      0.96238         0.015182     -0.003722     -0.005703
Li	     -0.91644      3.14532      4.99489        -0.017186     -0.007428      0.001801
Li	     -5.28343      3.16464      0.96380         0.005933      0.013540     -0.007045
Li	      1.05136      5.24490      5.00254        -0.010027     -0.004020      0.010105
Ti	     -0.99055      5.24642      2.99335         0.031797     -0.005758      0.086055
Ti	     -3.22935      3.14865      2.97486        -0.035820      0.003471     -0.160314
Ti	     -3.15826      7.44277      7.00265        -0.005068      0.024800      0.235098
Ni	     -5.28124      5.24759      2.98840         0.005691     -0.001566     -0.091697
Ni	      1.01543      3.15156      6.92706        -0.006075     -0.002192      0.049490
Ni	     -0.99596      5.24902      6.91508         0.017870     -0.001868      0.023808
O	     -3.08538      5.24555      2.97997         0.101082     -0.007167     -0.004077
O	     -3.12856      5.19804      6.93334        -0.018020     -0.062061      0.001043
O	     -1.14817      3.14722      2.97397        -0.105756     -0.002434     -0.004443
O	     -1.15495      3.13721      6.94081        -0.137900      0.015406     -0.000340
O	     -5.25567      3.14792      2.94649         0.014541      0.001273      0.002852
O	      1.16458      5.24020      6.96267         0.133080      0.016314      0.003973
O	     -3.16832      3.14646      1.10834        -0.010006      0.001558      0.311809
O	     -3.17273      3.14156      4.90864        -0.000195      0.003202     -0.082943
O	     -1.04053      1.04787      1.09832        -0.000219     -0.001602      0.235733
O	     -1.02206      5.24526      4.84962         0.001139     -0.002403     -0.336053
O	     -5.26353      5.24405      0.92447        -0.005131      0.020128     -0.308105
O	      1.04683      3.14583      4.93189         0.001342     -0.006232      0.038196
