# total energy = -152.23844994 eV
 
CRYSTAL
PRIMVEC
2.185503 2.238530 0.000108 
-13.828638 14.165604 0.000083 
0.000043 0.000129 3.795761 
PRIMCOORD
24 1
Li	    -10.53629     13.26865      0.94831         0.001714     -0.001544      0.000189
Li	     -8.04824     10.52200      0.94828        -0.003408      0.007016     -0.000062
Li	     -6.15607      8.44001      0.94785         0.013725     -0.010173      0.001974
Li	     -3.62937      5.81842      0.94773        -0.004178     -0.012163      0.001083
Li	     -0.86329      3.19547      0.94795        -0.004706      0.013002     -0.000011
Li	    -12.54399     15.18152      0.94825         0.007710      0.008770     -0.001310
Ti	     -3.40076      3.64357      2.84601         0.321513     -0.051723     -0.000441
Ti	     -5.80609      6.01257      2.84565         0.023693      0.243676      0.000505
Ti	    -10.17290     10.84078      2.84704         0.021645      0.269858     -0.001580
Ni	     -0.84165      0.94881      2.84599        -0.097313      0.091982     -0.000750
Ni	     -6.17819     10.68020      2.84625         0.090330     -0.081913     -0.001720
Ni	    -12.75129     13.22935      2.84607         0.114434     -0.099755      0.002561
O	    -10.00534     12.67729      2.84605         0.040565     -0.308677      0.002847
O	     -8.23416     10.48131      2.84608        -0.194439      0.138498      0.001109
O	     -5.62891      7.84638      2.84589         0.024360     -0.326892     -0.001563
O	     -3.88007      5.60958      2.84569        -0.078475      0.010433      0.001110
O	     -1.58769      3.91488      2.84572        -0.358274      0.032906      0.001088
O	    -12.62822     15.29991      2.84597         0.014154      0.017822      0.001828
O	    -12.46669     12.95278      0.94845         0.027230     -0.008670     -0.005400
O	    -10.19197     10.49218      0.94821         0.029117      0.035880     -0.001450
O	     -5.90304     10.36298      0.94838         0.015154     -0.044150     -0.000511
O	     -3.65752      7.92823      0.94791         0.009165      0.022888      0.000473
O	     -1.56789      5.91743      0.94804         0.025450      0.005777     -0.001303
O	     -1.19331      1.32333      0.94797        -0.039165      0.047151      0.001332
