# total energy = -153.30152535 eV
 
CRYSTAL
PRIMVEC
0.001717 4.174255 0.000010 
-4.265000 -0.001762 7.901011 
4.270592 0.001730 3.953111 
PRIMCOORD
24 1
Li	     -1.11277      3.13434      4.93685         0.018535      0.002797      0.008360
Li	     -1.10040      3.13590      8.88171        -0.020956      0.001702      0.017771
Li	     -3.02918      1.03683      8.88904        -0.021456     -0.010643      0.002337
Li	      1.10867      1.04689      4.94095        -0.005763      0.003071     -0.008840
Li	      0.90165      1.03839      8.89400         0.017859     -0.006721      0.013859
Li	      3.19353      3.13746      4.96100        -0.000570      0.003785     -0.024462
Ti	      0.95880      3.13603      6.88679        -0.125473     -0.001657     -0.253841
Ti	     -3.34259      3.05372      6.94158        -0.134748     -0.024930      0.260645
Ti	     -0.95075      1.04710      2.97500         0.142433      0.004607      0.002175
Ni	      1.11838      3.13323      2.95757         0.031400     -0.001573     -0.005020
Ni	      3.15609      1.03952      2.96656        -0.003651     -0.004219      0.071866
Ni	     -1.09622      1.04421      6.91332         0.015919     -0.002269     -0.061570
O	     -0.96644      3.13362      6.89293         0.117422     -0.002746     -0.006403
O	     -0.98047      3.13099     10.89019         0.259657     -0.016676     -0.004783
O	      1.00285      1.04636      2.97146        -0.225852     -0.000619     -0.000491
O	      1.14007      1.04630      6.93107         0.071806     -0.000014      0.002331
O	     -3.20444      1.08868      6.89391        -0.029293      0.059564     -0.001350
O	     -1.11200      3.13217      2.97667        -0.080310     -0.002065      0.007359
O	     -1.03061      1.04587      4.85675        -0.004931      0.002845     -0.256874
O	     -1.07425      1.04695      8.88953         0.024060     -0.000181     -0.011238
O	     -3.18175      3.14131      8.78629        -0.021482     -0.012476     -0.354709
O	      1.09301      3.13348      5.03535        -0.023463      0.005485      0.371050
O	      1.09340      3.14311      8.89870        -0.003506      0.002461     -0.025922
O	      3.18693      1.04649      5.03661         0.002363      0.000474      0.257753
