# total energy = -153.30526272 eV
 
CRYSTAL
PRIMVEC
2.112750 2.112957 -0.000017 
2.129374 -2.129726 11.765337 
4.258726 -4.259166 0.000119 
PRIMCOORD
24 1
Li	      5.31751     -3.20406      0.98090        -0.002296      0.000140      0.002363
Li	      3.18552     -1.07263      0.98091         0.001876     -0.000653      0.000177
Li	      3.31936     -1.20644      4.90894        -0.008337      0.009449     -0.004275
Li	      3.32053     -1.20804      8.81818        -0.010528      0.012287      0.004897
Li	      5.18226     -3.06891      4.90909         0.012582     -0.012005     -0.004484
Li	      5.18359     -3.06912      8.81845         0.008973     -0.011631      0.003963
Ti	      1.06518     -1.06482      2.93117        -0.000956      0.000604     -0.120066
Ti	      7.43264     -3.21597      6.86499        -0.003994     -0.004076      0.000103
Ti	      5.32704     -5.32283     10.79778        -0.000414      0.002277      0.126403
Ni	      3.19504     -3.19380      2.95353         0.000509     -0.002924     -0.065698
Ni	      3.19674     -3.19335      6.86371        -0.000704     -0.000397     -0.001352
Ni	      5.30786     -1.08313     10.77391        -0.000977      0.002234      0.064515
O	      5.40204     -3.28972      2.93726         0.112445     -0.110281      0.018107
O	      3.09944     -0.98643      2.93703        -0.109531      0.108398      0.018546
O	      3.08354     -0.96961      6.86382        -0.118983      0.125291      0.000454
O	      3.09996     -0.98716     10.78951        -0.112868      0.110041     -0.015538
O	      5.41984     -3.30626      6.86405         0.125272     -0.119495     -0.005624
O	      5.40305     -3.29072     10.78971         0.107647     -0.109693     -0.015568
O	      3.19525     -3.19474      0.92291         0.002573     -0.000217     -0.300946
O	      3.17770      1.04767      1.03877         0.001062      0.000243      0.297947
O	      3.17758      1.04761      4.90725         0.000819      0.000295      0.014778
O	      5.32458     -5.32494      8.81929        -0.001634      0.000508     -0.019115
O	      3.19471     -3.19418      4.90145        -0.000904     -0.001551      0.011520
O	      3.19557     -3.19508      8.82607        -0.001633      0.001155     -0.011105
