# total energy = -152.35723209 eV
 
CRYSTAL
PRIMVEC
0.003184 4.209703 0.000133 
-4.258525 -0.003369 0.004780 
-2.141469 2.103608 11.875451 
PRIMCOORD
24 1
Li	     -3.24246      1.05246      4.96403        -0.000796     -0.005746      0.001165
Li	     -3.19067      5.25898      8.89836        -0.005162      0.001175     -0.005656
Li	     -1.02551      3.16048      0.99654         0.011255      0.004475     -0.004320
Li	     -1.04674      3.15078      4.96158         0.001822      0.000327     -0.000470
Li	     -5.31416      3.14748      8.89882        -0.005065     -0.001348      0.002102
Li	     -3.22972      1.05437      0.99009        -0.007020      0.003519      0.002769
Ti	     -1.20962      1.15448      2.95684        -0.072365      0.031055     -0.252918
Ti	     -5.46813      5.12847      6.93258        -0.140001     -0.090307     -0.006524
Ti	     -5.18587      5.36155     10.90560         0.067131      0.036327      0.257869
Ni	     -3.22753      3.16691      3.02578         0.000364      0.002740     -0.143405
Ni	     -3.21800      3.13424      6.93102        -0.007096     -0.005557     -0.005425
Ni	     -3.16850      3.16671     10.83602         0.007828      0.001998      0.145800
O	     -3.09385      5.25261      6.93043         0.174674     -0.021332     -0.003909
O	     -3.26872      5.25790     10.90304        -0.117614      0.013865      0.002828
O	     -1.07933      3.09677      2.96374        -0.017181     -0.079069     -0.005775
O	     -5.32609      3.22640      6.93259        -0.036024      0.127294      0.000375
O	     -5.31686      3.09239     10.89814         0.022954     -0.076682      0.002628
O	     -3.12401      1.04838      2.95945         0.126615      0.019472     -0.003916
O	     -3.20415      3.14946      4.95312         0.011986     -0.001151      0.058973
O	     -3.19196      3.14844      8.90850        -0.006658      0.005611     -0.053396
O	     -1.03868      1.03194      1.11904        -0.025579      0.015256      0.348549
O	     -1.04438      1.05058      4.97204        -0.007155     -0.002966      0.051728
O	     -5.31636      5.25571      8.88799        -0.006201      0.000333     -0.055047
O	     -3.21332      3.13420      0.86731         0.029287      0.020711     -0.334027
