# total energy = -153.66152131 eV
 
CRYSTAL
PRIMVEC
2.114280 2.114146 0.000031 
-4.226769 4.226503 0.000104 
-0.000326 0.000226 11.792106 
PRIMCOORD
24 1
Li	     -0.92881      3.04168      0.98222        -0.000423      0.002519     -0.002229
Li	     -1.04580      3.16193      4.90807        -0.020419      0.015711     -0.006763
Li	     -1.04480      3.16125      8.84818        -0.021133      0.016183      0.005248
Li	      0.93115      1.17987      0.98208         0.004289      0.002513     -0.001747
Li	      1.04962      1.06542      4.90769         0.015774     -0.016181     -0.003660
Li	      1.04877      1.06544      8.84812         0.017891     -0.015742      0.008157
Ti	     -1.05518      1.05725      6.87793         0.002554     -0.001115      0.001068
Ti	     -3.16671      3.17100      2.95556         0.002774     -0.000661      0.120855
Ti	     -3.16343      3.17356     10.80006         0.000821      0.003409     -0.121098
Ni	      1.05798      3.16842      2.93786        -0.000525      0.002050      0.064416
Ni	      1.05700      3.16676     10.81826         0.000709      0.004061     -0.063439
Ni	     -3.16908      3.17007      6.87828         0.000098     -0.001386     -0.001115
O	     -1.13638      3.25028      2.95056        -0.119228      0.116562     -0.011007
O	     -0.99555      3.11089      6.87813         0.124153     -0.126616     -0.000041
O	     -1.13688      3.24941     10.80506        -0.117586      0.115257      0.014791
O	     -3.08759      5.20119      2.95070         0.116345     -0.117506     -0.013577
O	      0.99840      1.11658      6.87834        -0.123443      0.122733     -0.003816
O	     -3.08792      5.20028     10.80529         0.113425     -0.117478      0.013911
O	     -3.16838      3.16876      0.98196         0.002395      0.000614      0.001276
O	     -3.16894      3.16964      4.84955        -0.000778     -0.000054     -0.275827
O	     -3.16862      3.16952      8.90662         0.000544     -0.000321      0.275406
O	      1.05825      3.16830      0.98199         0.000932     -0.002282     -0.000054
O	     -1.05556      1.05654      4.97365         0.001212     -0.002459      0.245718
O	     -1.05568      1.05578      8.78255        -0.000378      0.000188     -0.246473
