# total energy = -152.97177251 eV
 
CRYSTAL
PRIMVEC
2.131861 2.131486 -0.000027 
-6.355960 6.354794 3.964257 
0.000217 -0.000325 7.929383 
PRIMCOORD
24 1
Li	     -3.15573      5.28702      4.88662         0.002572     -0.002517      0.005636
Li	     -3.15598      5.28930      8.99020         0.005324     -0.009483     -0.003845
Li	     -1.06819      3.19625      4.88659        -0.003046      0.006977      0.003826
Li	     -1.06914      3.19834      8.99019        -0.004164      0.006449     -0.006846
Li	      1.06483      1.06689      0.99189         0.002415     -0.004232      0.000813
Li	     -5.28995      7.41862      8.92068        -0.002699      0.004572     -0.000145
Ti	      1.14027      3.11896      6.93810         0.109739     -0.109924     -0.007426
Ti	     -1.04982      5.30501      6.93800        -0.005360     -0.006168      0.010145
Ti	     -3.23477      7.49618      6.93914        -0.113872      0.111681     -0.018934
Ni	      0.96192      3.29972      2.97303         0.097940     -0.096474      0.005878
Ni	     -3.17786      3.17791      2.97374         0.001242     -0.001212     -0.002093
Ni	     -5.18591      5.18661     10.90393        -0.098200      0.096927     -0.000948
O	     -3.14553      5.27893      6.93857         0.020296     -0.018867     -0.001916
O	     -3.17375      5.30608      2.97390         0.054050     -0.056024     -0.000971
O	     -1.07654      3.20933      6.93812        -0.019625      0.020281      0.002911
O	     -1.05035      3.18073      2.97349        -0.054489      0.056156     -0.000262
O	     -5.19786      7.32895      6.93862         0.148409     -0.147747      0.000574
O	      0.97299      1.15663      6.93831        -0.144096      0.148229      0.002039
O	     -5.30105      5.30031      5.05416         0.001071      0.001091      0.297450
O	     -5.30083      5.30062      8.82377         0.003083     -0.003676     -0.293944
O	     -3.17756      3.17754      5.07381         0.001123      0.000237      0.338946
O	     -3.17774      3.17771      8.80292        -0.000517      0.002832     -0.344298
O	      1.07594      3.18593      0.89323        -0.000093      0.000078     -0.291657
O	      1.07628      3.18556      5.05296        -0.001102      0.000812      0.305069
