# total energy = -88.59641806 eV
 
CRYSTAL
PRIMVEC
-0.000013 2.103125 -2.108780 
-0.000006 2.103124 2.108779 
16.853416 -0.000043 -0.000095 
PRIMCOORD
16 1
Li	      4.60419      2.10434     -2.10675         0.025561      0.000498      0.000145
Li	      6.42409      2.10401      0.00120        -0.030099      0.000298      0.001189
Li	     10.43943      2.10382      0.00105         0.037779      0.000599      0.000487
Li	     12.21873      2.10384     -2.10729        -0.125032      0.000692     -0.000154
Mn	     16.85168      2.10425     -2.10648         0.062083      0.000019     -0.000296
Mn	      2.39815      2.10436      0.00237         0.121472      0.000096     -0.000366
Ni	      8.39260      2.10396     -2.10773         0.069059      0.000016     -0.000130
Ni	     14.43110      2.10407      0.00218         0.062352      0.000107     -0.000395
O	     14.85538      2.10408     -2.10662         0.084269      0.001375      0.001782
O	      0.21327      2.10429      0.00241        -0.025978     -0.000760     -0.000387
O	     10.23652      2.10389     -2.10776         0.154277     -0.000545      0.000543
O	     12.52105      2.10392      0.00167        -0.033749     -0.000132     -0.000870
O	      6.53384      2.10404     -2.10762        -0.064220     -0.000821      0.000059
O	      8.41256      2.10398      0.00100        -0.096946     -0.000307      0.000323
O	      2.08769      2.10435     -2.10638        -0.099355      0.000023     -0.000558
O	      4.18176      2.10438      0.00228        -0.141473     -0.001159     -0.001370
