# total energy = -152.01740815 eV
 
CRYSTAL
PRIMVEC
0.002176 0.002131 3.955617 
6.323147 6.320631 0.006595 
-4.266476 4.264779 0.000027 
PRIMCOORD
24 1
Li	     -1.13682      3.19174      0.98480        -0.001696      0.003949     -0.002586
Li	     -3.20494      5.26214      0.98471         0.003961     -0.002444     -0.002766
Li	      1.21026      5.12504      0.99364        -0.020639      0.023610     -0.003061
Li	      2.99598      3.33907      0.99358         0.022340     -0.018061     -0.003023
Li	      3.15884      7.39876      1.00171        -0.008396      0.003435     -0.001248
Li	      5.27015      5.28906      1.00179         0.004204     -0.009358     -0.001275
Ti	      1.13219      7.52740      3.08053         0.027356      0.027527      0.253661
Ti	     -0.97406      1.15666      2.89767         0.085325      0.083924     -0.152435
Ti	     -1.00733      5.38691      3.04545         0.153042      0.153708      0.173462
Ni	      1.04605      3.17644      2.96528         0.050438      0.048562      0.001098
Ni	      3.16306      5.29205      2.96837        -0.059320     -0.061039     -0.010194
Ni	     -3.19570      3.20132      2.96361         0.017208      0.018043      0.001345
O	     -1.06786      3.07911      2.96324         0.002204     -0.113999     -0.000048
O	      0.94687      1.06353      2.96324        -0.114417      0.002853     -0.000389
O	      0.87981      5.40568      2.95714        -0.224949      0.078084      0.012956
O	     -0.98964      7.27448      2.95701         0.076661     -0.225694      0.011183
O	      3.08352      7.38264      2.97487        -0.064294      0.021092      0.010297
O	      0.98717      9.47945      2.97492         0.021446     -0.062977      0.010731
O	     -1.14265      5.25316      0.93938         0.015411      0.015735     -0.181407
O	      1.04927      3.17858      0.98713        -0.029313     -0.027095     -0.002623
O	      1.04001      7.43545      0.95440         0.014236      0.013680     -0.254326
O	      3.13640      5.26601      0.99124         0.023914      0.021946      0.003835
O	     -3.19239      3.20532      0.98638        -0.010850     -0.012012     -0.003441
O	      5.22982      7.35957      1.03649         0.016128      0.016532      0.140254
