# total energy = -151.92220135 eV
 
CRYSTAL
PRIMVEC
-0.000195 4.186753 -0.000262 
-4.178351 0.000195 -0.000061 
-2.089138 2.092688 12.056787 
PRIMCOORD
24 1
Li	     -3.13196      1.04033      4.95838        -0.003298     -0.004259      0.013603
Li	     -3.13188      5.22554      9.01169        -0.002602      0.001257     -0.051464
Li	     -1.04355      3.13711      1.10066         0.000064      0.000825      0.051917
Li	     -1.04294      3.14668      4.95352         0.005145      0.001273      0.016058
Li	     -5.21981      3.14652      9.01473        -0.000466      0.002312     -0.052332
Li	     -3.13011      1.04471      1.10186        -0.006007      0.000724      0.050785
Ti	     -3.13262      3.13651     11.04115         0.003770     -0.001710      0.084274
Ti	     -5.23238      5.30507      6.97893        -0.014714      0.025225     -0.734086
Ti	     -5.22204      5.23145     11.06212         0.002333     -0.003702      0.348026
Ni	     -3.13199      3.13702      3.07026         0.000034     -0.001919      0.021351
Ni	     -3.13295      3.14895      7.02575         0.000168      0.007043     -0.054096
Ni	     -1.04185      1.04286      2.99755        -0.002218     -0.000620      0.093164
O	     -3.12496      5.23346      7.08371         0.011033      0.005853      0.092139
O	     -3.13237      5.23086     11.01962         0.002854     -0.000007     -0.009642
O	     -1.04291      3.13597      3.00256         0.000480     -0.000198     -0.077185
O	     -5.22058      3.10094      7.08387        -0.002104     -0.050696      0.087691
O	     -5.22157      3.13613     11.02010         0.002663     -0.002959     -0.010245
O	     -3.13109      1.04299      3.00420        -0.002701      0.002809     -0.081588
O	     -3.13238      3.13685      5.06020         0.007456     -0.000913      0.020982
O	     -3.13208      3.13842      9.14328         0.000268     -0.000039      0.410142
O	     -1.04285      1.04481      0.84452        -0.001943     -0.000872     -0.469750
O	     -1.04099      1.03595      5.18999        -0.000569      0.021940      0.605351
O	     -5.22006      5.22252      9.07976         0.000250      0.000401      0.250782
O	     -3.13220      3.13713      0.83686         0.000101     -0.001768     -0.605877
