# total energy = -152.28138763 eV
 
CRYSTAL
PRIMVEC
2.091477 2.091526 0.000037 
-4.210447 4.210539 -0.000051 
0.000174 0.000030 12.090298 
PRIMCOORD
24 1
Li	     -1.06619      3.15808      1.09964        -0.000424     -0.001326      0.004320
Li	     -1.12731      3.21932      4.96493        -0.003189      0.003284      0.001712
Li	     -1.06652      3.15653      9.04678         0.005556     -0.003353     -0.007973
Li	     -3.15801      5.24719      1.09969         0.002302      0.001078      0.002821
Li	     -3.09431      5.18727      4.96502         0.003601     -0.004594      0.001296
Li	     -3.15646      5.24849      9.04665        -0.005108      0.003744     -0.008220
Ti	     -1.05097      1.05270      6.96083        -0.001041     -0.001928     -0.604104
Ti	      1.03928      3.14235     11.08069         0.001340     -0.000273      0.261883
Ti	     -1.06575      5.24767     11.07312        -0.001976      0.003310      0.217016
Ni	     -1.05190      1.05204      3.01852         0.000270     -0.001270      0.023782
Ni	     -1.06568      5.24879      3.05423         0.000470     -0.000772     -0.006420
Ni	     -1.06553      5.24872      7.08438         0.000725     -0.000587      0.011664
O	     -1.04861      3.14029      3.00476        -0.005561      0.005141     -0.006668
O	     -0.97692      3.06901      7.11869         0.136239     -0.138083      0.006992
O	     -1.05893      3.14948     11.05111         0.008810     -0.006688     -0.016936
O	      1.03627      1.05516      3.00480         0.005708     -0.005049     -0.005893
O	      0.96540      1.12670      7.11870        -0.138591      0.137077      0.008175
O	     -3.16426      5.25488     11.05114        -0.008152      0.009777     -0.017467
O	     -1.06612      5.24839      0.83020         0.001170     -0.001155     -0.408499
O	     -3.15677      3.15737      5.12585         0.000371     -0.000340     -0.056393
O	     -1.06572      5.24848      9.15049         0.000921     -0.001032      0.277549
O	      1.03924      3.14300      0.83309        -0.001204      0.000582     -0.430818
O	     -1.05139      1.05217      5.16605        -0.001809      0.000794      0.622634
O	      1.03971      3.14302      9.15234        -0.000429      0.001659      0.129545
