# total energy = -152.81696969 eV
 
CRYSTAL
PRIMVEC
2.127128 2.127352 0.000131 
-6.485098 6.486144 3.939508 
-0.000110 0.000646 7.878003 
PRIMCOORD
24 1
Li	     -3.16820      5.29488      4.90335        -0.000847      0.002065      0.003801
Li	     -3.16845      5.29468      8.88164         0.000383     -0.000862      0.003746
Li	     -1.00464      3.13201      4.88571         0.005292     -0.005319      0.009893
Li	     -1.00353      3.13119      8.92197         0.002299     -0.001667     -0.013105
Li	      0.87576      1.25111      1.00408         0.001438     -0.002252     -0.001898
Li	      0.87195      1.25496      4.89864         0.001373     -0.001580     -0.000120
Ti	     -1.05443      5.30875      6.90285         0.093262     -0.093135      0.013676
Ti	     -3.27800      7.51418     10.71996        -0.007673     -0.002689     -0.262523
Ti	     -5.41114      5.41380      6.78913        -0.146483      0.146198     -0.287018
Ni	      0.87170      3.38308      2.96398         0.110569     -0.110611     -0.000279
Ni	     -1.07432      1.07664      6.90363         0.012942     -0.012547     -0.000194
Ni	     -1.09025      5.34523      2.96457        -0.059512      0.059159     -0.004113
O	     -3.26665      5.39311      6.90466        -0.010356      0.007840     -0.009055
O	     -3.37029      5.49968      2.96916        -0.103016      0.110161     -0.015061
O	     -1.20824      3.33557      6.90410        -0.151691      0.150358     -0.005037
O	     -1.17311      3.30060      2.96446         0.002941     -0.003820      0.001038
O	     -5.20745      7.33530      6.91082         0.153256     -0.152947     -0.009860
O	     -5.28222      7.41126     10.84481         0.104432     -0.095537     -0.003269
O	     -3.22708      7.48223      4.96876        -0.000317     -0.000768      0.314916
O	     -3.22663      7.47947      8.89141        -0.002672     -0.000029      0.275732
O	     -1.16538      5.41987      5.02886        -0.001385      0.002292      0.312368
O	     -1.16582      5.42015      8.77691        -0.001877      0.001814     -0.317941
O	      1.06520      3.18907      0.98625        -0.003669      0.004148      0.008447
O	      1.06282      3.19148      4.94288         0.001309     -0.000270     -0.014141
