# total energy = -153.20402219 eV
 
CRYSTAL
PRIMVEC
2.115218 2.115027 3.943202 
-6.462448 6.462741 -0.000271 
-2.114979 -2.115284 3.943177 
PRIMCOORD
24 1
Li	     -5.27853      3.16795      4.93001        -0.007733      0.003471      0.004176
Li	     -3.16873      5.27801      4.93006        -0.003374      0.008597      0.003549
Li	     -3.10620      0.99029      4.92224        -0.002141      0.000525     -0.009346
Li	     -0.99141      3.10509      4.92229        -0.000377      0.002232     -0.010091
Li	     -1.23464     -0.88200      4.93158         0.002649     -0.003330      0.000068
Li	      0.88137      1.23386      4.93171         0.003624     -0.001851     -0.000290
Ti	     -3.09729      3.09644      6.89238         0.139043     -0.141374      0.013167
Ti	     -5.36987      5.37048      7.01444        -0.039513      0.037882      0.295467
Ti	     -5.41157      5.41215      3.06422        -0.047867      0.050208      0.277711
Ni	     -1.07887      1.07790      6.89200         0.036034     -0.037164      0.004622
Ni	     -1.17491      1.17393      2.94912         0.051100     -0.051428     -0.000549
Ni	     -3.25733      3.25645      2.94823        -0.009412      0.009584     -0.000901
O	     -3.33158      5.45350      2.94353        -0.015801      0.117130      0.014066
O	     -5.45409      3.33089      2.94364        -0.115486      0.016267      0.013312
O	     -1.14788      3.30698      2.95051         0.039712      0.262944     -0.006888
O	     -3.30798      1.14674      2.95059        -0.259500     -0.037953     -0.007758
O	     -5.24773      7.38268      2.94046         0.100575     -0.140578      0.025221
O	     -7.38285      5.24747      2.94059         0.139546     -0.101061      0.024611
O	     -5.35872      5.35880      4.88544         0.006884     -0.008189     -0.310686
O	     -5.35586      5.35559      0.95551         0.006475     -0.006227     -0.311004
O	     -3.28139      3.28083      5.01209         0.004375     -0.005578      0.267782
O	     -3.28289      3.28211      0.88650         0.010580     -0.010209     -0.274480
O	     -1.06061      1.05986      4.91213        -0.020223      0.017685      0.007332
O	     -1.06099      1.06019      0.98662        -0.019170      0.018416     -0.019093
