# total energy = -152.70569519 eV
 
CRYSTAL
PRIMVEC
0.001084 0.001039 3.949040 
6.435046 6.435414 0.003435 
-4.245253 4.245485 -0.000001 
PRIMCOORD
24 1
Li	     -1.08105      3.33281      0.99209         0.000263      0.000761      0.003397
Li	     -3.03388      5.28527      0.99210        -0.000208     -0.000297      0.003202
Li	      0.91469      5.14259      0.99107         0.009839      0.009918     -0.006402
Li	      3.02129      3.03572      0.99112         0.009807      0.010316     -0.007659
Li	      3.28546      7.67566      0.99163        -0.014095     -0.007632      0.000474
Li	      1.30887      9.65246      0.99167        -0.010633     -0.012392     -0.000254
Ti	      1.07901      7.44606      3.10023        -0.101273     -0.098228      0.277535
Ti	     -0.95171      1.16936      3.03851         0.209603      0.209848      0.115519
Ti	      3.25056      5.37236      2.80236        -0.026049     -0.028603     -0.375270
Ni	      1.06875      3.18963      2.96852         0.044438      0.044032     -0.004202
Ni	     -1.11883      5.24761      2.96061         0.025968      0.025842     -0.000048
Ni	      3.24580      9.61260      2.95839        -0.012277     -0.012601      0.003649
O	     -1.06775      3.04940      2.96237         0.026990     -0.298794      0.015106
O	      0.92830      1.05318      2.96234        -0.298062      0.028301      0.014802
O	      1.22192      5.50683      2.96535         0.091736      0.167605      0.001375
O	     -0.86009      7.58863      2.96538         0.169847      0.092458      0.001279
O	      3.22090      7.37151      2.95975         0.000151     -0.123396      0.004518
O	      5.25011      5.34215      2.95971        -0.123337     -0.001027      0.003999
O	     -1.03004      5.33654      0.98651         0.000399     -0.000452      0.001749
O	      1.10216      3.22338      0.99401        -0.009651     -0.011789     -0.009456
O	      1.16829      7.53522      0.97055        -0.000975     -0.002322     -0.307973
O	      3.23121      5.35262      0.99852         0.001755      0.003030      0.388617
O	      3.24384      9.61062      0.98553         0.002921      0.003248     -0.004269
O	      5.32438      7.44567      0.96657         0.002841      0.002174     -0.119687
