# total energy = -151.93284398 eV
 
CRYSTAL
PRIMVEC
0.000591 4.185762 0.000114 
0.000579 0.000273 12.049885 
4.190809 0.000592 0.000223 
PRIMCOORD
24 1
Li	      1.04430      1.04558      1.09993         0.000790     -0.000598      0.049961
Li	      1.04122      1.05315      4.95124         0.004867      0.000233     -0.007166
Li	      1.04232      1.05319      9.00582         0.002150      0.004341     -0.035718
Li	      3.14032      3.13876      1.09954        -0.000220     -0.000088      0.050268
Li	      3.15304      3.13669      4.94847        -0.003166     -0.000377     -0.001913
Li	      3.15386      3.13705      9.00769        -0.002017     -0.003095     -0.039669
Ti	      1.12759      3.19857      6.97474         0.014255      0.034571     -0.695890
Ti	      1.04578      3.13919     11.04931        -0.000849     -0.000953      0.350370
Ti	      3.13946      1.04578     11.04029        -0.001009     -0.001339      0.134003
Ni	      1.04373      3.13751      3.02176         0.000071     -0.000154      0.063226
Ni	      3.13993      1.04587      3.04831        -0.001776     -0.001882      0.010391
Ni	      3.15671      1.05570      7.01458         0.000331      0.002772     -0.034070
O	      1.04405      1.04451      2.99851         0.001159     -0.002298     -0.049554
O	      1.05109      1.01734      7.07837         0.011734     -0.049094      0.062803
O	      1.04516      1.04518     11.01151         0.004196     -0.002280     -0.000320
O	      3.13878      3.13847      2.99791        -0.002970      0.000379     -0.048085
O	      3.10720      3.14065      7.07838        -0.054282      0.012185      0.060468
O	      3.13938      3.13929     11.01185         0.002149      0.001061      0.000037
O	      1.04365      3.13791      0.82820        -0.000019     -0.001757     -0.593266
O	      1.03883      3.13290      5.18462         0.026258      0.014094      0.616251
O	      1.03807      3.13281      9.06690        -0.000123     -0.004180      0.221799
O	      3.13987      1.04601      0.85422        -0.001392     -0.000780     -0.496527
O	      3.14197      1.04632      5.04728         0.001315     -0.000536      0.018462
O	      3.14324      1.04720      9.14021        -0.001451     -0.000226      0.364141
