# total energy = -91.87788850 eV
 
CRYSTAL
PRIMVEC
4.055329 -0.000116 0.000112 
-2.028210 4.301737 -6.288145 
-2.027865 4.220020 2.041638 
PRIMCOORD
16 1
Li	      0.00180      4.44526     -0.17400        -0.003730      0.036445      0.009934
Li	      0.00163      2.30207     -2.25087        -0.001372     -0.015305     -0.007409
Li	      0.00033      6.27139     -2.06772         0.004911      0.016118      0.011804
Li	      0.00055      4.06985     -4.08372         0.005078     -0.047780     -0.000065
Mn	      2.02863      4.29357     -6.25865         0.000930     -0.135638     -0.003170
Mn	      2.02915      2.18511     -0.06601        -0.002438      0.123791     -0.076686
Ni	     -2.02642      4.27440     -2.12806        -0.001509     -0.057030      0.008263
Ni	     -2.02711      6.28986     -4.12299         0.000364      0.087450     -0.029169
O	     -2.02691      6.19922     -2.17461        -0.002260      0.181489      0.174677
O	      2.02921      4.09607      0.06909        -0.002953      0.031710      0.094577
O	      0.00045      6.58511     -4.36346         0.005444     -0.005613     -0.055665
O	      2.02930      0.15319     -0.02323        -0.001367      0.120743      0.016098
O	      2.02831      4.27420     -4.33740         0.003810     -0.101384     -0.108053
O	      2.02944      2.28325     -1.93507        -0.005485     -0.118220      0.067867
O	      0.00119      4.27190     -2.12582        -0.001375     -0.011632     -0.006763
O	      0.00139      1.96375      0.04975         0.001952     -0.105142     -0.096240
