# total energy = -153.14988428 eV
 
CRYSTAL
PRIMVEC
2.088368 2.113906 3.939573 
-4.199000 0.006701 3.947548 
2.123917 -6.420708 3.962356 
PRIMCOORD
24 1
Li	     -1.02060     -0.91941      4.93031        -0.019094      0.001231      0.001605
Li	      1.03582     -3.37375      4.94047         0.018934     -0.001058     -0.000635
Li	      1.18584     -3.37749      8.88339        -0.015715      0.003232     -0.001593
Li	     -1.02968     -5.35340      8.89035        -0.001744     -0.000727     -0.000679
Li	      0.91762      1.19814      4.92705         0.015816     -0.004127      0.001014
Li	     -1.04787     -1.08651      8.87901        -0.000119     -0.000074     -0.001787
Ti	      1.06242     -0.96842      2.88960        -0.049795      0.189048     -0.312491
Ti	      1.05101     -1.09033      6.90505         0.000175      0.001218      0.000987
Ti	     -1.04832     -3.32517      6.98066         0.049742     -0.189432      0.313802
Ni	      3.14175     -3.29239      6.91940        -0.033776     -0.017465     -0.086442
Ni	      1.06962     -5.35665      6.91664         0.001267     -0.000436     -0.000500
Ni	     -1.03801      1.11321      6.89083         0.033464      0.015851      0.088991
O	     -1.02662     -1.15204      6.91204         0.002844     -0.063630     -0.002809
O	      0.94085     -3.11261      6.89265        -0.136014      0.125554      0.002760
O	     -1.06043     -5.23663      6.89625        -0.000029      0.252703      0.001619
O	      1.07585      0.94309      2.97448        -0.000006     -0.251653     -0.001964
O	     -0.92522     -1.18075      2.97843         0.136167     -0.123780     -0.005755
O	      1.04262     -3.14104      2.95854        -0.001189      0.063091      0.003248
O	     -1.06198      1.05971      4.93068         0.008783      0.004955     -0.018651
O	      1.08198     -1.08507      4.97712         0.006147     -0.001308      0.084207
O	     -1.06680     -3.20847      4.89410        -0.006078      0.001706     -0.083594
O	     -1.08633     -3.22267      8.81385        -0.005242     -0.000110     -0.420495
O	      1.07707     -5.35302      4.94013        -0.008283     -0.005644      0.017579
O	     -3.09725     -1.06381      5.00422         0.003745      0.000855      0.421583
