# total energy = -153.46069649 eV
 
CRYSTAL
PRIMVEC
4.208925 4.208647 -0.000145 
-4.209259 0.000191 3.949748 
4.205217 -4.205082 3.945696 
PRIMCOORD
24 1
Li	      1.03734      1.17423      0.99912         0.004999     -0.013414      0.007169
Li	      1.05001      1.05676      4.93448         0.001028     -0.000722     -0.000109
Li	      3.27591     -1.06235      4.92043        -0.017591      0.006391     -0.008849
Li	      3.03755      3.17438      0.99878         0.013664     -0.005615      0.009272
Li	     -1.05515     -1.04775      4.93459         0.002608     -0.000269      0.000771
Li	      5.27447      0.93699      4.91995        -0.007405      0.015796     -0.006484
Ti	      1.05092     -1.04895      2.96023        -0.001042      0.006368      0.001818
Ti	     -1.08879      1.09105      3.00219         0.016933     -0.015210      0.233636
Ti	      3.19058      1.02095      6.86639        -0.010190      0.013984     -0.240033
Ni	      1.07209      3.13884      2.97204         0.018288     -0.014880      0.047065
Ni	      5.23851     -1.02653      2.94680        -0.015137      0.012860     -0.047569
Ni	      3.15487      1.05598      2.95952        -0.000360      0.000357      0.000442
O	      0.96798      0.99662      2.96491        -0.100670     -0.135692     -0.008927
O	      5.34245      1.11576      2.95439         0.102451      0.135706      0.007846
O	      3.15355     -1.04603      6.90714        -0.001275      0.000059      0.000199
O	     -0.99418     -0.96554      2.96471         0.136107      0.099569     -0.006932
O	      3.09570     -1.13077      2.95470        -0.134843     -0.103186      0.006881
O	      1.04877     -3.15065      6.90712        -0.001402     -0.000797      0.001206
O	      5.25874     -1.04659      4.93211        -0.002293     -0.000412      0.001791
O	      1.06921     -1.06621      1.06103        -0.006877      0.005574      0.261910
O	      3.17013      1.04131      5.00447         0.003253     -0.002975      0.347312
O	      3.15353     -3.15038      4.93275        -0.000299     -0.002505     -0.004308
O	     -1.06847      1.07106      4.86395        -0.006145      0.005063     -0.339463
O	      1.03224     -1.02977      4.85861         0.006197     -0.006051     -0.264641
