# total energy = -153.56769682 eV
 
CRYSTAL
PRIMVEC
2.101073 2.103640 3.950668 
4.216239 4.210511 -3.959801 
-6.322529 2.109874 0.006792 
PRIMCOORD
24 1
Li	     -1.06775      3.28659      0.98877         0.000366     -0.005492     -0.002914
Li	     -5.24657      3.15825      0.99289         0.000077     -0.002413     -0.001491
Li	      0.93768      5.26826      0.98533         0.006677     -0.002238      0.002586
Li	     -3.03466      5.26204      0.98440        -0.018191     -0.014390     -0.003031
Li	      1.04447      5.26151     -2.96313         0.001406      0.012728     -0.004729
Li	     -1.05519      7.23249      0.99441         0.011712      0.019614      0.011670
Ti	      3.21392      5.22505     -1.05106         0.021525     -0.036612     -0.282239
Ti	      0.98055      3.08740     -0.96338        -0.097638     -0.061604      0.230158
Ti	     -3.15297      3.18613      2.97251         0.040308      0.013510      0.022844
Ni	      1.01724      3.16654      2.95593        -0.020202      0.005988      0.000654
Ni	     -1.05091      5.25824     -0.98970        -0.010498     -0.008799     -0.060561
Ni	     -3.10966      3.17765     -0.97705         0.005655      0.000096      0.051648
O	     -1.14267      3.08405      2.99042        -0.159017     -0.105045     -0.003411
O	      5.24388      5.28030     -1.00016        -0.037245     -0.024236      0.000296
O	     -0.96842      3.15147     -1.00263         0.222376      0.007252      0.005283
O	      1.04494      1.06229     -0.98945         0.014900      0.025422     -0.004311
O	      1.13412      5.28153     -0.99650         0.093603      0.016557     -0.002242
O	      3.08478      3.25317     -0.98765        -0.094405      0.161104     -0.001652
O	     -1.04559      5.25840      0.99720        -0.001124      0.006604     -0.011732
O	      1.03955      3.14495      0.89308        -0.008347     -0.009720     -0.355759
O	     -1.06868      5.28558     -3.05260        -0.003655      0.008969     -0.260571
O	      3.17140      5.26591      1.00029         0.004092      0.006211      0.016220
O	     -3.17583      3.16535      1.07714         0.002298     -0.001647      0.245280
O	      3.16551      5.27882     -2.89325         0.025327     -0.011859      0.408002
