# total energy = -153.48301610 eV
 
CRYSTAL
PRIMVEC
4.231650 4.231294 0.000052 
-4.230421 -0.001231 3.937841 
4.230281 -4.229925 3.939148 
PRIMCOORD
24 1
Li	      1.18087      1.05453      0.98311        -0.012994     -0.009155      0.005603
Li	      0.94177      1.07865      4.92673         0.012418      0.020700     -0.004637
Li	      3.15989     -1.06605      4.92341         0.004778     -0.002197      0.001162
Li	      3.17599      3.04995      0.98311         0.009396      0.012412      0.005986
Li	     -1.07996     -0.94319      4.92689        -0.020340     -0.011720     -0.006322
Li	      1.06538     -3.16067      4.92347         0.001903     -0.004910      0.001131
Ti	      0.93199     -0.93282      2.92961        -0.166946      0.165179     -0.201378
Ti	      5.28873     -1.05716      3.00364         0.037052     -0.035021      0.256101
Ti	      3.18662      1.04485      6.88680         0.046683     -0.048823     -0.029830
Ni	      1.09414      3.13618      2.96487        -0.001765      0.001929     -0.000100
Ni	     -1.07818      1.07702      2.93895        -0.003411      0.003100     -0.041470
Ni	      3.18546      1.04496      2.96571        -0.013844      0.014613      0.039251
O	      1.06341      0.98103      2.95908        -0.014495     -0.264500      0.004206
O	      5.36022      1.00437      2.95725         0.126420     -0.022050      0.001876
O	      3.08537     -0.99610      6.88223        -0.128104      0.153770     -0.001183
O	     -0.98191     -1.06438      2.95906         0.263845      0.015101      0.004996
O	      3.22600     -1.12944      2.95719         0.022105     -0.127492      0.001408
O	      0.99499     -3.08642      6.88229        -0.152768      0.127167     -0.001621
O	      5.28310     -1.05243      4.86314        -0.003850      0.005143     -0.384640
O	      1.07172     -1.07250      1.06497        -0.015579      0.015752      0.329189
O	      3.19440      1.03630      4.99504         0.000901     -0.001957      0.298362
O	      3.16973     -3.17050      4.84953        -0.002493      0.003430     -0.284907
O	      3.16801      1.06256      0.98186         0.008745     -0.007309     -0.000076
O	      1.06879     -1.06944      4.90506         0.002340     -0.003161      0.006892
