# total energy = -153.49545548 eV
 
CRYSTAL
PRIMVEC
2.095280 2.095276 3.958487 
-4.208560 4.208532 -0.000036 
-4.197342 -4.197307 3.965352 
PRIMCOORD
24 1
Li	     -3.14881      0.92350      4.95373        -0.016427      0.013770      0.000287
Li	     -1.18005     -1.04428      4.95303         0.013030     -0.017436      0.002110
Li	     -5.12443     -1.05312      4.95245        -0.015603      0.016562     -0.003710
Li	     -1.03847      3.12820      4.94914        -0.009327      0.013424      0.001412
Li	     -3.15706     -3.02073      4.95285         0.016692     -0.016051     -0.004285
Li	      1.02507      1.06566      4.94959         0.011583     -0.010491     -0.000717
Ti	     -1.05616      1.04986      2.97011        -0.001326     -0.004318      0.000229
Ti	     -5.28225      1.03094      6.97541         0.020521      0.020280      0.299528
Ti	     -5.23434      1.07870      2.93019        -0.019723     -0.020802     -0.284243
Ni	     -3.13645     -1.03244      6.93372         0.017286      0.016506      0.073158
Ni	     -3.16917     -1.06507      2.97213        -0.016760     -0.016357     -0.070285
Ni	     -3.15859      3.15458      2.97013        -0.002090     -0.003934     -0.001060
O	     -3.24551      1.13952      6.93216        -0.120566      0.121937      0.000116
O	     -5.17276      3.06682      6.93177         0.121339     -0.120295      0.002760
O	     -1.06730      3.14902      2.96816         0.024599     -0.000965      0.005466
O	     -3.15225      1.06344      2.97197         0.004060     -0.025530     -0.004335
O	     -3.16219      5.24487      2.96823        -0.002274      0.026362      0.005306
O	     -5.24954      3.15954      2.97245        -0.022142      0.002151     -0.009611
O	     -3.13340      3.17829      5.04830        -0.010802     -0.005887      0.394864
O	     -1.05488      1.04889      4.85982        -0.001457     -0.001506     -0.229432
O	     -5.25665      1.05545      4.95235         0.000669     -0.000401      0.005158
O	     -3.18286      3.12988      0.89249         0.009403      0.007351     -0.408076
O	     -3.15216     -1.04904      4.95311        -0.003323      0.002802     -0.002570
O	     -1.05276      1.05101      1.08074         0.002638      0.002829      0.227929
