# total energy = -153.61495944 eV
 
CRYSTAL
PRIMVEC
2.113283 2.113549 3.937161 
-2.106451 -6.352165 3.939684 
4.245024 -4.245486 -0.000028 
PRIMCOORD
24 1
Li	      1.07836     -3.18893      4.92162        -0.003560     -0.006059      0.000714
Li	     -1.18276     -5.29972      4.92432         0.007784      0.003501      0.000279
Li	      3.18076     -5.29218      4.92164        -0.002026     -0.002652     -0.000909
Li	      1.07017     -7.55218      4.92382         0.002482      0.005233      0.003478
Li	      1.19638     -3.18917      0.98213        -0.000111      0.001393     -0.005679
Li	      3.17990     -5.17301      0.98194        -0.000341     -0.002927     -0.007027
Ti	      1.05025     -5.32067      2.96134        -0.054765     -0.061254      0.035259
Ti	      1.17422     -0.95021      2.92808         0.158284      0.163227     -0.223121
Ti	      3.19221     -7.42427      2.98716        -0.019053     -0.013736      0.222322
Ni	      3.15177     -7.46273      6.88986         0.004539      0.007761     -0.051772
Ni	      3.17349     -3.19595      2.96174         0.005955      0.005889      0.030590
Ni	      1.08586     -5.28348      6.88280         0.011073      0.005868      0.009478
O	     -0.96854     -5.22719      2.94489         0.127909      0.148666      0.006171
O	      5.31188     -3.27710      2.96193        -0.005896     -0.253069     -0.001715
O	      1.14234     -7.33894      2.94468         0.146814      0.135168      0.008416
O	      3.09275     -1.05734      2.96198        -0.260304     -0.004046     -0.005682
O	      0.96625     -3.19805      2.95406        -0.121656     -0.007615      0.002944
O	      3.17139     -5.40357      2.95391        -0.008846     -0.123932      0.004090
O	      1.02943     -1.09467      4.91347         0.003053     -0.000938      0.008078
O	      3.17824     -7.43707      4.85642        -0.000597      0.000476     -0.362238
O	      3.18338     -3.18588      4.99847        -0.001746     -0.004233      0.247940
O	      1.09851     -5.27144      4.84738        -0.002552     -0.003938     -0.294348
O	      1.06295     -1.06072      1.06803         0.019440      0.011185      0.353072
O	      3.17876     -3.19028      0.97576        -0.005880     -0.003966      0.019662
