# total energy = -153.62691342 eV
 
CRYSTAL
PRIMVEC
2.115068 2.115067 3.937692 
-4.239479 4.239443 0.000051 
-4.230703 -4.230627 3.938237 
PRIMCOORD
24 1
Li	     -3.18687      1.07480      4.92094        -0.001603     -0.003482     -0.002463
Li	     -5.28408      3.17277      4.92074        -0.005671     -0.000512     -0.002109
Li	     -5.43940     -1.04113      4.92419         0.012834     -0.012318      0.008113
Li	     -3.18034      1.18977      0.98000         0.010714     -0.009308     -0.006328
Li	     -7.40091      0.92134      4.92448        -0.013414      0.011004      0.007422
Li	     -5.17047      3.18088      0.98002        -0.008598      0.008783     -0.005753
Ti	     -0.93954      1.18106      2.93835         0.165244      0.164349     -0.169595
Ti	     -3.17845     -1.05667      3.01268        -0.017706     -0.022589      0.284091
Ti	     -5.31441      1.04678      2.94680        -0.043131     -0.038784     -0.048892
Ni	     -3.15744     -1.03730      6.90358         0.011328      0.011421     -0.005682
Ni	     -5.33389      1.02577      6.87890         0.000857      0.002180     -0.043179
Ni	     -3.19508      3.16485      2.95494         0.008815      0.009468      0.042214
O	     -5.20782     -0.98956      2.94311         0.126385      0.152543     -0.001659
O	     -3.10951     -3.08765      2.94300         0.152051      0.126054     -0.001166
O	     -1.05343      3.09658      2.95965         0.000721     -0.261830      0.002471
O	     -3.21590      0.97037      2.95095        -0.011395     -0.128532      0.004249
O	      0.97612      1.06705      2.95969        -0.260897     -0.000169      0.002271
O	     -1.14957     -1.09612      2.95086        -0.129627     -0.010977      0.004473
O	     -3.19269      3.16704      4.99438        -0.006338     -0.007726      0.298111
O	     -1.08668      1.03355      4.89458        -0.000012      0.001027     -0.014525
O	     -5.29232      1.06738      4.85292        -0.002288     -0.003357     -0.274634
O	     -3.18709      3.17321      0.97023        -0.004613     -0.005629      0.011178
O	     -3.16820     -1.04822      4.85643         0.001251      0.003439     -0.404172
O	     -1.06202      1.05863      1.07387         0.015092      0.014944      0.315565
