# total energy = -92.47862964 eV
 
CRYSTAL
PRIMVEC
1.984677 4.206549 2.022240 
4.050583 -2.123790 -2.064165 
-0.015270 4.296650 -4.207755 
PRIMCOORD
16 1
Li	      3.98132      4.30479     -0.18871        -0.001565      0.015108      0.002215
Li	      3.97209      2.28695     -2.11989        -0.012537      0.008072      0.003612
Li	      2.06160      4.15117     -2.11975         0.004975     -0.020039      0.003718
Li	      4.02504      6.18141     -2.14517        -0.007768     -0.002057      0.005555
Mn	      4.03021      2.17532     -6.26248         0.042900      0.010100      0.002250
Mn	      2.04848      2.13522     -0.06131         0.023490      0.020966     -0.013618
Ni	      4.01932      0.06449     -4.17529         0.048258     -0.042342     -0.005781
Ni	      3.96459      4.23274     -4.15580        -0.040197     -0.041250     -0.066784
O	      4.05221      4.22725     -2.17899        -0.158848      0.002837      0.150798
O	      4.02556      2.17581     -4.36155         0.011052     -0.035335     -0.070578
O	      3.99476      2.01790     -0.04196         0.001951      0.108463     -0.007966
O	      4.13092     -0.17194     -2.08202         0.032555     -0.034358      0.022866
O	      1.97399      4.08627      0.07155        -0.005292     -0.052292      0.025214
O	      1.96688      2.12756     -1.93755         0.126310      0.004441      0.060490
O	      1.99717      6.56995     -2.23085         0.091894      0.027068     -0.110251
O	      1.92416      4.47489     -4.19604        -0.157178      0.030620     -0.001739
