# total energy = -152.75785277 eV
 
CRYSTAL
PRIMVEC
2.122849 2.123098 -0.000053 
-6.465143 6.465889 0.000872 
-0.000639 0.000446 7.894881 
PRIMCOORD
24 1
Li	     -3.33686      5.45932      0.95807         0.000497     -0.001477     -0.009875
Li	     -3.33739      5.45987      4.96249        -0.000931      0.000797      0.006349
Li	     -0.90951      3.03211      0.95347        -0.004454      0.003134     -0.001233
Li	     -0.91078      3.03217      4.96027         0.000911      0.000974      0.000356
Li	      0.96070      1.16161      0.93096         0.002177     -0.002861      0.017317
Li	      0.96026      1.16148      5.00085         0.003542     -0.002800     -0.001822
Ti	     -1.09734      5.34289      2.86258         0.124767     -0.123944     -0.329383
Ti	     -3.23437      3.23879      6.78945         0.051596     -0.050037     -0.237788
Ti	     -5.43805      5.43991      2.96883        -0.101240      0.103039      0.004252
Ni	      1.09304      3.15115      2.96801        -0.057825      0.057989      0.001487
Ni	      1.17249      3.07174      6.91465        -0.100236      0.100434      0.007655
Ni	     -3.30292      7.54777      6.91652         0.054866     -0.054485      0.005087
O	     -3.22765      5.34817      2.97402        -0.003606      0.003445     -0.003615
O	     -3.15767      5.27768      6.92274         0.093130     -0.094324     -0.010789
O	     -1.27049      3.39218      2.98115        -0.149486      0.149234     -0.019391
O	     -1.26203      3.38418      6.92238        -0.100498      0.095988     -0.017531
O	     -5.29339      7.41624      2.96639         0.179658     -0.181729      0.010301
O	     -5.35189      7.47403      6.91487        -0.014870      0.013288      0.006560
O	     -3.21643      7.46141      1.09839         0.007204     -0.008434      0.285294
O	     -3.21893      7.46389      4.83890         0.010354     -0.010523     -0.290551
O	     -1.15500      5.39954      1.04953        -0.009459      0.010452      0.350627
O	     -1.15785      5.40315      4.95331        -0.012928      0.014003      0.229570
O	      1.02326      3.22174      1.02994         0.014740     -0.012314     -0.044617
O	      1.02345      3.22098      4.90559         0.012091     -0.009847      0.041738
