# total energy = -153.20098004 eV
 
CRYSTAL
PRIMVEC
2.116438 2.116073 3.941380 
-4.343993 8.575636 -0.000052 
-2.116358 -2.116152 3.941341 
PRIMCOORD
24 1
Li	     -3.32886      5.44805      4.92721        -0.010290      0.010913      0.000308
Li	     -0.91814      3.03850      4.92589         0.004496     -0.003149      0.000196
Li	     -3.32896      5.44816      0.98560        -0.009237      0.011994      0.000618
Li	     -1.16364     -0.94980      4.93359         0.007228     -0.009992      0.011624
Li	      0.95249      1.16639      4.93321         0.006783     -0.011229      0.012581
Li	     -0.91887      3.03778      0.98446         0.005332     -0.003349     -0.000588
Ti	     -3.23614      3.24117      2.84863         0.044664     -0.051069     -0.283344
Ti	     -1.09312      5.33051      2.85103         0.052208     -0.047752     -0.287251
Ti	     -3.39383      7.62787      2.96490        -0.147574      0.147677      0.004782
Ni	     -0.97761      0.98099      6.90632        -0.057764      0.057051     -0.002350
Ni	     -1.06796      1.07156      2.96529        -0.035142      0.036494     -0.003743
Ni	     -3.24784      7.48241      6.90671         0.009558     -0.012309      0.002710
O	     -3.16736      5.27834      6.91344         0.017301     -0.099949     -0.021219
O	     -1.23277      3.37123      6.91569        -0.126675      0.113217     -0.021992
O	     -3.15907      5.28793      2.97203         0.101815     -0.021109     -0.022038
O	     -3.23454      9.53731      2.96278        -0.040138     -0.273369      0.008811
O	     -5.30332      7.46996      2.96285         0.276734      0.036770      0.009684
O	     -1.25121      3.35318      2.97430        -0.112650      0.123792     -0.021524
O	     -3.21699      7.45248      4.84679         0.005531     -0.007198     -0.278644
O	     -1.14314      5.37941      4.96352        -0.003278      0.004246      0.307709
O	     -3.21513      7.45065      1.08307         0.004435     -0.006147      0.277898
O	     -1.09097      1.09383      4.94456         0.005412      0.001100     -0.007460
O	     -1.09076      1.09377      0.98461         0.003252      0.001025      0.027136
O	     -3.25579      3.25962      4.96867        -0.002000      0.002343      0.286097
