# total energy = -153.93583733 eV
 
CRYSTAL
PRIMVEC
-4.232064 -0.001774 3.943118 
4.231935 0.002000 3.943022 
2.119086 6.290319 0.000168 
PRIMCOORD
24 1
Li	     -1.03853      3.14863      4.92972         0.026219      0.001580     -0.008763
Li	      1.06046      1.05110      0.98641        -0.005866     -0.006218     -0.000735
Li	      1.05612      1.04604      4.92961         0.003155      0.009118     -0.000323
Li	      1.04335      5.23942      4.92948        -0.027625     -0.013108     -0.008057
Li	      3.19397      3.15035      4.92883         0.022601      0.003848      0.012212
Li	      1.04033      5.23469      0.98593        -0.019236      0.001836      0.010634
Ti	      1.17610      3.15186      6.90076         0.144203     -0.025313     -0.013104
Ti	      3.17280      1.04758      2.95875         0.002517      0.000382     -0.001512
Ti	      3.06073      5.23094      2.95729        -0.147715      0.028598     -0.012641
Ni	      1.02185      3.12652      2.95825        -0.012399     -0.007273      0.001939
Ni	     -1.05611      1.04740      2.95752        -0.005679     -0.003589      0.001199
Ni	     -1.01793      5.25955      2.95791         0.018795      0.005982      0.002356
O	      3.22157      3.13760      2.95802         0.075261      0.004977     -0.001796
O	      1.12602      0.98135      2.95770         0.120997     -0.131433      0.001528
O	      0.99256      1.11583      6.90093        -0.123312      0.135248      0.001107
O	      1.01476      5.25111      6.90100        -0.076610     -0.001695      0.001231
O	     -1.10889      3.14323      2.95833        -0.213956      0.022896     -0.003975
O	      1.11363      5.24215      2.95752         0.214661     -0.020456      0.001128
O	     -1.05863      5.23781      5.00128        -0.005146     -0.002694      0.280877
O	      1.06331      3.14764      0.91421         0.004556     -0.000401     -0.270964
O	      1.06318      3.14802      5.00169         0.006308     -0.001714      0.278092
O	     -1.05677      1.04799      5.00508         0.000876      0.001093      0.276848
O	      3.17291      5.23956      4.85687        -0.003242     -0.001887     -0.269498
O	      3.17503      1.04995      4.85378         0.000637      0.000222     -0.277785
