# total energy = -153.62193996 eV
 
CRYSTAL
PRIMVEC
-4.191647 -0.000079 0.000033 
-0.000064 -0.000269 7.937723 
-2.095698 6.314573 -0.000095 
PRIMCOORD
24 1
Li	     -3.14261      5.26390      1.03261         0.000317     -0.009537     -0.002933
Li	     -3.14101      5.25871      4.92031        -0.005921      0.003084      0.001870
Li	     -5.23882      3.16905      1.03325         0.002060     -0.003451     -0.005118
Li	     -5.23718      3.16271      4.91760        -0.002055      0.007408      0.013785
Li	     -3.14167      1.04047      1.03380        -0.002659     -0.005480     -0.003213
Li	     -3.14190      1.04064      4.91905        -0.001477     -0.005781      0.003896
Ti	     -3.14644      3.21752      6.94521         0.002646      0.041384     -0.009958
Ti	     -1.04904      0.98604      6.94526        -0.000518     -0.035613     -0.012128
Ti	     -5.24224      5.26078      2.97727        -0.006749     -0.010068     -0.000432
Ni	     -3.14125      3.11466      2.97572        -0.003671     -0.007335      0.001392
Ni	     -1.04571      1.09175      2.97574        -0.002792      0.008048      0.005003
Ni	     -5.23976      5.25911      6.94532         0.005961      0.001416     -0.001976
O	     -3.13882      5.25977      2.97672         0.004191      0.008949     -0.002619
O	     -3.14361      5.25985      6.94445         0.002007     -0.000374      0.006069
O	     -5.23635      3.22417      2.97614        -0.003834      0.138339     -0.004857
O	     -1.04611      3.08912      6.94449         0.001398     -0.083573      0.003468
O	     -3.14108      0.98066      2.97688        -0.000510     -0.134394     -0.004917
O	     -3.14295      1.11483      6.94515         0.002801      0.087873      0.001013
O	     -1.04689      1.04491      0.88204         0.002214     -0.013048     -0.273754
O	     -1.04650      1.04354      5.07012         0.000781     -0.007687      0.281027
O	     -5.23783      5.26050      1.05289         0.001501     -0.002831      0.215160
O	     -5.23785      5.25844      4.90020         0.001583      0.005775     -0.219256
O	     -3.14164      3.16138      0.88153        -0.000930      0.006937     -0.268232
O	     -3.14222      3.15998      5.07006         0.003655      0.009959      0.276708
