# total energy = -153.53543302 eV
 
CRYSTAL
PRIMVEC
-4.167530 -0.000041 0.000085 
2.083594 -6.454792 3.955136 
-2.083720 6.454741 3.955343 
PRIMCOORD
24 1
Li	     -1.04126     -1.07463      0.95705         0.000829     -0.002524     -0.012656
Li	     -1.04097     -1.07511      4.98148        -0.000494      0.001857      0.012307
Li	     -5.20965      3.25347      4.94062        -0.000471      0.011934     -0.012305
Li	     -3.12669     -3.20154      4.95261         0.001788      0.015158      0.014404
Li	     -3.12613      1.05145      0.98594         0.003119     -0.017741     -0.018785
Li	     -3.12470      1.05180      4.95249        -0.001488     -0.014346      0.016447
Ti	     -1.04406     -3.38547      2.96973         0.006347     -0.199736     -0.021096
Ti	     -1.04232      1.23486      2.96882         0.001949      0.201500      0.008593
Ti	     -3.12672     -1.07531      2.96935        -0.006752      0.000841     -0.001726
Ni	     -3.12575      3.34731      2.96924        -0.000632     -0.040899      0.002351
Ni	     -1.04197      0.95696      6.92431        -0.003238      0.041999     -0.003049
Ni	     -3.12539     -1.07516      6.92436         0.001829      0.001425      0.001180
O	     -1.04034     -1.07491      2.96916         0.000300      0.001259      0.002279
O	     -1.04095     -1.07516      6.92435        -0.002449      0.001311      0.001370
O	     -3.12526     -3.13998      2.96909         0.002465      0.091716      0.005181
O	     -1.04196      3.14801      2.96916        -0.001248     -0.269847     -0.001944
O	     -3.12566      0.98986      2.96922         0.002950     -0.093984     -0.002893
O	     -3.12566      1.15632      6.92417        -0.004032      0.271787      0.004736
O	     -1.04201      1.08429      1.08482         0.002819      0.002273      0.286623
O	     -1.04142      1.08445      4.85292        -0.000251     -0.001008     -0.287401
O	     -3.12495     -1.07502      1.08091        -0.000842      0.000473      0.308716
O	     -3.12473     -1.07517      4.85793        -0.002686     -0.000383     -0.313989
O	     -1.04195     -3.23445      4.85303         0.000653     -0.002760     -0.283821
O	     -3.12531      3.22018      5.04028        -0.000466     -0.000304      0.295480
