# total energy = -152.49671553 eV
 
CRYSTAL
PRIMVEC
-4.198612 -0.001668 -0.001907 
0.003562 0.006155 7.958799 
-2.096766 6.339208 0.004021 
PRIMCOORD
24 1
Li	     -3.15301      5.11527      0.95417        -0.005111      0.006005     -0.010942
Li	     -3.15067      5.11658      5.00146        -0.003302      0.006715      0.002094
Li	     -5.25165      3.20661      0.95296        -0.002698      0.011068     -0.001519
Li	     -5.24893      3.21532      5.00743        -0.002133      0.003178     -0.001097
Li	     -3.12047      1.21844      0.99159         0.003647     -0.028708     -0.002611
Li	     -3.12933      1.21485      5.00189         0.005928     -0.034511     -0.001800
Ti	     -1.03412      1.13955      3.07261         0.005294      0.029944      0.322146
Ti	     -0.92987      1.05785      7.08545         0.068237     -0.007795      0.161217
Ti	     -5.24333      5.23764      2.97067         0.005102      0.002512     -0.012127
Ni	     -3.14627      3.20416      2.97237         0.002934     -0.007479      0.007546
Ni	     -3.14199      3.21734      6.95228         0.002855      0.008943     -0.004845
Ni	     -5.24509      5.22307      6.94922         0.003738     -0.032778     -0.003382
O	     -3.14797      5.42575      2.97018        -0.001427      0.076194     -0.005934
O	     -3.16375      5.43002      6.94688         0.013625      0.162648      0.004897
O	     -1.04814      3.12097      2.97420         0.006965     -0.049902     -0.002182
O	     -1.05598      3.01867      6.95102         0.010738     -0.165782      0.006230
O	     -3.15189      0.97434      2.97704        -0.011448     -0.073526     -0.012629
O	     -3.20506      1.00639      6.96664        -0.110168      0.043500      0.010247
O	     -1.04772      1.05774      0.99213         0.009413      0.014292     -0.170238
O	     -1.05223      1.06973      4.89480         0.002174      0.025521     -0.298966
O	     -5.24816      5.24721      1.09795         0.001474     -0.011830      0.253776
O	     -5.24907      5.25635      4.84913        -0.003254     -0.021206     -0.238735
O	     -3.14759      3.16547      1.00555        -0.002298      0.018152     -0.022484
O	     -3.14889      3.16279      4.94250        -0.000285      0.024845      0.021336
