# total energy = -152.64077308 eV
 
CRYSTAL
PRIMVEC
-4.191099 0.001472 -0.000998 
2.098698 -6.366910 3.976921 
-2.096832 6.360024 3.964720 
PRIMCOORD
24 1
Li	     -1.04019     -1.23646      0.98927         0.000191      0.010577     -0.002182
Li	     -1.03755     -1.24233      4.98553         0.000035      0.008656      0.006898
Li	     -5.23300      3.22565      4.96497        -0.000034     -0.001351     -0.012071
Li	     -3.13598     -3.13095      4.96849         0.002057     -0.006553      0.017363
Li	     -3.15007      1.21554      0.97829        -0.001689     -0.022144      0.008629
Li	     -3.15857      1.21846      4.94788         0.001919     -0.024255      0.006443
Ti	     -1.14806      1.00298      6.84532        -0.055770     -0.158592     -0.204306
Ti	     -1.03790      1.14324      2.86946         0.005283      0.211013     -0.239955
Ti	     -3.13177     -1.16433      2.99243         0.007654     -0.030019      0.000801
Ni	     -3.14131      3.22567      2.98652         0.001839      0.034876     -0.002685
Ni	     -1.04526     -3.17845      2.99151         0.001268      0.004625     -0.001842
Ni	     -3.14331     -1.11345      6.96610         0.005773     -0.032279     -0.003146
O	     -1.04859     -0.93791      2.99672        -0.009354      0.076698     -0.010372
O	     -1.03253     -0.90667      6.96536        -0.019568      0.231230     -0.013784
O	     -3.13546     -3.18835      2.99122        -0.006669      0.050594     -0.004949
O	     -1.04650      3.03857      2.98876        -0.001682     -0.265568     -0.013604
O	     -3.14363      0.96431      2.97674        -0.007920     -0.082478      0.002318
O	     -3.07972      1.02853      6.94870         0.095989      0.006709     -0.006608
O	     -1.03535      1.07546      1.02517        -0.006143      0.012828      0.261802
O	     -1.03864      1.06816      5.00603        -0.013634      0.002275      0.216939
O	     -3.13909     -1.08296      1.09998        -0.001349     -0.015115      0.258580
O	     -3.13959     -1.08723      4.88110         0.001953     -0.013941     -0.267831
O	     -1.04129     -3.18885      4.98638         0.000331     -0.000104     -0.013936
O	     -3.14063      3.17683      4.95957        -0.000479      0.002318      0.017497
