# total energy = -151.44814337 eV
 
CRYSTAL
PRIMVEC
0.000004 0.000179 3.882553 
4.072364 -0.000317 0.000007 
0.000256 14.022984 -0.000418 
PRIMCOORD
24 1
Li	      1.01794      1.52746      0.97303        -0.000490     -0.005261     -0.002015
Li	      1.01747      5.83950      0.97241        -0.000020      0.000279     -0.000794
Li	      1.01680     10.15258      0.97220         0.000484      0.005896     -0.000536
Li	      3.05438      3.72294      0.97249        -0.000622      0.082284      0.001383
Li	      3.05297      7.95678      0.97228        -0.000929     -0.082021      0.000385
Li	      3.05379     12.85177      0.97168         0.000696      0.002090     -0.001810
Ti	      1.01803     12.85140      2.91094        -0.001436      0.012082     -0.006832
Ti	      3.05344     10.42535      2.91306        -0.001524     -0.389388      0.001389
Ti	      3.05407      1.25494      2.91392        -0.000931      0.394643      0.000990
Ni	      1.01809      3.77823      2.91381         0.002685     -0.106651     -0.001458
Ni	      1.01687      7.90267      2.91352         0.001965      0.100011     -0.001104
Ni	      3.05365      5.84023      2.91360         0.000331     -0.001159      0.000790
O	      1.01764      0.86195      2.91418        -0.000434     -0.033837     -0.000646
O	      1.01744      5.84010      2.91369         0.003607      0.007364     -0.000665
O	      1.01701     10.81956      2.91355         0.001149      0.026742      0.000449
O	      3.05430      3.05458      2.91388        -0.006586     -0.186897      0.000533
O	      3.05296      8.62587      2.91350        -0.000327      0.180357      0.000968
O	      3.05350     12.85226      2.91306         0.002022     -0.002735     -0.000762
O	      1.01809      3.44547      0.97248        -0.001103     -0.063726      0.001709
O	      1.01684      8.23505      0.97221        -0.002150      0.059825      0.002351
O	      1.01760     12.85221      0.97249         0.000426     -0.001708      0.005912
O	      3.05361      5.84013      0.97236         0.001285      0.002859     -0.001133
O	      3.05318     10.68351      0.97217         0.001741     -0.010946      0.000924
O	      3.05387      0.99701      0.97281         0.000161      0.009897     -0.000030
