# total energy = -51.69672676 eV
 
CRYSTAL
PRIMVEC
-0.003842 0.003260 -4.091279 
-2.062482 -4.315977 -2.044175 
-4.113364 -0.003591 -0.003874 
PRIMCOORD
8 1
Li	     -3.07967     -1.08670     -3.06232        -0.001829      0.009260      0.004218
Li	     -5.17559     -3.25184     -3.08556         0.009930     -0.006631     -0.008960
Ti	     -3.19895     -3.23209     -5.19357        -0.061387     -0.008878     -0.057639
Ni	     -1.01229     -1.07802     -1.00700         0.003909      0.003668      0.003416
O	     -3.09520     -3.29031     -3.04191        -0.013070      0.126571      0.105405
O	     -3.05417     -1.30641     -0.99956        -0.031804     -0.156737     -0.009134
O	     -5.11589     -3.17977     -5.11569         0.118821     -0.128008     -0.020005
O	     -0.99928     -0.84515     -3.04218        -0.024569      0.160755     -0.017299
