# total energy = -103.18235373 eV
 
CRYSTAL
PRIMVEC
-4.015715 0.000136 -0.000052 
2.007756 -4.486052 -6.295452 
-2.007720 -4.384348 2.032762 
PRIMCOORD
16 1
Li	     -1.00733     -5.79124     -5.40480        -0.001769     -0.011349      0.001416
Li	     -1.00772     -5.26027     -0.96148        -0.002801      0.002823      0.005183
Li	     -5.02288     -3.55952      0.86018         0.001096     -0.002774     -0.005679
Li	     -1.00770     -3.12984     -3.02494         0.002487      0.011706     -0.001406
Ti	     -3.01611     -5.46886     -3.08063         0.001496      0.164957      0.237182
Ti	     -1.00672     -7.83684     -3.31697        -0.001264     -0.164141     -0.235030
Ni	     -1.00756     -1.19096     -1.06621        -0.000934      0.087660     -0.018185
Ni	     -3.01559     -3.24435     -1.06786         0.002663     -0.088759      0.016650
O	     -3.01573     -3.57481     -3.25987         0.003760     -0.184417     -0.086353
O	     -3.01515     -3.37889      1.11602        -0.002711      0.080433      0.353457
O	     -3.01540     -1.20271     -1.05500        -0.001869      0.141052      0.000360
O	     -1.00760     -5.76183     -3.18890         0.001240     -0.019430      0.001675
O	     -3.01540     -7.54403     -3.20906        -0.002595      0.017462      0.002255
O	     -1.00771     -3.23256     -1.07894         0.002374     -0.140930     -0.004414
O	      1.00043     -5.34668     -5.17007        -0.003389      0.187350      0.084487
O	     -3.01573     -5.44095     -1.21806         0.002218     -0.081645     -0.351598
