# total energy = -103.72677832 eV
 
CRYSTAL
PRIMVEC
-4.109541 0.000219 0.000477 
2.055672 -4.309435 -6.108365 
-2.054745 -4.322440 2.044874 
PRIMCOORD
16 1
Li	     -1.03187     -5.36475     -5.11643         0.012540      0.002060      0.003016
Li	     -1.03948     -5.40651     -0.99040         0.003775     -0.001968     -0.005389
Li	     -5.13398     -3.25972      1.05172        -0.012895     -0.001031      0.006955
Li	     -1.03700     -3.20996     -3.07019        -0.003657     -0.010377     -0.006318
Ti	     -3.17985     -5.41789     -3.09993        -0.063274     -0.119494     -0.133889
Ti	     -3.17288     -3.21304     -0.96356        -0.070839      0.122190      0.137864
Ni	     -1.01710     -1.07590     -1.00551         0.001826     -0.016568      0.015838
Ni	     -1.01756     -7.55489     -3.05678         0.008322      0.011552     -0.020500
O	     -3.06454     -3.38989     -2.97760        -0.010089     -0.030240      0.151695
O	     -3.06684     -3.35498      0.94947        -0.020870      0.142993     -0.262913
O	     -3.05964     -1.28811     -1.01946        -0.024163     -0.172065      0.001079
O	     -0.99021     -5.45449     -3.05917         0.112841      0.126105      0.002862
O	     -3.05987     -7.34327     -3.04327        -0.022301      0.177049     -0.001594
O	     -0.98811     -3.17817     -1.00379         0.100230     -0.119030     -0.002381
O	      1.03910     -5.27660     -5.01349        -0.004305     -0.139710      0.265398
O	     -3.06569     -5.24261     -1.08449        -0.007142      0.028534     -0.151723
