# total energy = -102.70094799 eV
 
CRYSTAL
PRIMVEC
-0.000004 -0.000106 -4.053953 
4.118554 0.007760 0.000002 
-0.017052 -8.832007 0.000224 
PRIMCOORD
16 1
Li	      0.95303     -1.42784     -3.04151        -0.002886      0.004593     -0.001264
Li	      3.07723     -5.42527     -1.01437         0.007469      0.010461      0.000149
Li	      1.09163     -7.40443     -1.01431        -0.000955     -0.002342      0.000344
Li	      3.08338     -3.40512     -3.04141        -0.001053     -0.005642     -0.000992
Ti	      2.89544     -1.17249     -1.01470        -0.220722     -0.328093      0.000968
Ti	      3.26742     -7.64905     -3.04120         0.229690      0.322944     -0.000181
Ni	      1.02735     -5.41668     -3.04110        -0.000250     -0.070605     -0.004288
Ni	      1.01591     -3.41322     -1.01455         0.001887      0.063279      0.002458
O	      1.02506     -3.38999     -3.04133        -0.008318      0.146213     -0.001615
O	      3.10716     -7.90910     -1.01434        -0.003639     -0.027900      0.000535
O	      1.05197     -1.16804     -1.01459         0.266138      0.068001     -0.000187
O	      3.06580     -5.80442     -3.04127         0.056220     -0.322229     -0.000246
O	      0.99273     -7.66144     -3.04122        -0.272887     -0.064860     -0.001039
O	      3.09649     -3.01676     -1.01446        -0.056565      0.327960      0.000669
O	      1.01889     -5.44071     -1.01447         0.005486     -0.143979      0.004203
O	      3.05627     -0.91044     -3.04150         0.000384      0.022199      0.000486
