# total energy = -155.15849258 eV
 
CRYSTAL
PRIMVEC
2.057732 -4.297422 2.057280 
-2.057642 -4.297359 -2.057208 
4.154752 -0.000027 -8.268409 
PRIMCOORD
24 1
Li	     -0.90489     -5.37165     -1.15113        -0.003807     -0.000981      0.008199
Li	      0.92061     -1.07518     -2.97830         0.006774      0.000478     -0.002996
Li	      3.11549     -5.36906     -5.16820        -0.002816     -0.001722     -0.004297
Li	      1.03661     -7.52532     -1.03602         0.000039      0.001491      0.000076
Li	      3.07969     -3.22269     -3.07685        -0.020673     -0.000182      0.020922
Li	      3.14968     -3.22140     -7.26150         0.021917     -0.000923     -0.018253
Ti	      3.11560     -1.07468     -5.16922        -0.004331     -0.000954      0.005742
Ti	      0.95321     -3.22322     -5.06645        -0.275751      0.003228      0.274672
Ti	      3.21796     -7.52049     -7.32993         0.276151      0.000026     -0.275711
Ni	      1.08676     -5.37207      0.97128        -0.041125      0.000636      0.042912
Ni	      0.98698     -5.37198     -3.04297         0.043583     -0.001334     -0.041603
Ni	      1.03650     -3.22269     -1.03584        -0.000269     -0.001535     -0.003250
O	      5.16067     -3.30145     -7.13841         0.009232      0.126519      0.356216
O	      1.06824     -3.30149     -3.20078        -0.008934      0.118840     -0.349509
O	      3.11525     -7.68258     -5.16843        -0.001816     -0.065303     -0.003967
O	      1.03659     -1.22165     -1.03591         0.003260      0.142357      0.002524
O	      3.19797     -5.54591     -3.14044         0.168276     -0.064483     -0.012765
O	      3.03268     -5.54548     -7.19701        -0.172752     -0.070492      0.007595
O	      3.02598     -3.14506     -9.27247        -0.353820     -0.120580     -0.009209
O	      1.14523     -7.44243     -3.12344         0.355702     -0.121471      0.002636
O	      3.11551     -3.06189     -5.16878        -0.000254      0.065391     -0.001580
O	      1.03651     -5.22331     -1.03562         0.001036     -0.142483     -0.000893
O	      1.08655     -5.19837     -5.25134         0.008802      0.067611     -0.170344
O	      3.08604     -0.90102     -7.14376        -0.008425      0.065866      0.172886
