# total energy = -155.63324470 eV
 
CRYSTAL
PRIMVEC
2.040512 -4.308866 2.040678 
-2.045703 -4.314052 -2.045814 
4.104256 -0.002473 -8.191039 
PRIMCOORD
24 1
Li	     -0.99479     -5.39137     -1.05539         0.000157      0.001119     -0.004705
Li	      0.99368     -1.07843     -3.03732        -0.002226     -0.000235     -0.002603
Li	      3.05752     -5.39121     -5.10878        -0.011380     -0.000072      0.009217
Li	      1.03857     -7.54439     -1.04712         0.012730     -0.000112     -0.014661
Li	      3.07802     -3.23352     -3.08360        -0.006197      0.000279      0.008204
Li	      3.08414     -3.23497     -7.17630         0.004730     -0.001003     -0.001009
Ti	      3.00271     -1.07876     -5.04825        -0.150073     -0.001417      0.149075
Ti	      1.11466     -3.23386     -1.11989         0.168816      0.000392     -0.157440
Ti	      3.13632     -7.54804     -7.23404         0.049331      0.000224     -0.049289
Ni	      5.11470     -5.39094     -7.16581        -0.004622      0.000460      0.004506
Ni	      1.02939     -5.39082     -3.07921         0.022421     -0.001103     -0.019226
Ni	      1.01813     -3.23608     -5.10937        -0.026807     -0.000014      0.023942
O	      5.12266     -3.30973     -7.13202         0.001231      0.131685      0.115354
O	      1.02131     -3.30934     -3.02328         0.007319      0.121865      0.289236
O	      3.08814     -7.71056     -5.18780         0.008054     -0.063232     -0.158973
O	      1.00341     -1.29175     -1.00502         0.007509     -0.123538     -0.006619
O	      3.13133     -5.48855     -3.08514         0.287487      0.135351      0.006586
O	      3.01280     -5.57135     -7.14884        -0.133830     -0.085926     -0.003810
O	      3.04021     -3.16341     -9.21468        -0.110683     -0.127080     -0.001662
O	      0.97279     -7.47215     -3.07113        -0.289139     -0.120900     -0.015378
O	      3.13635     -3.07050     -5.13965         0.163903      0.065042     -0.005041
O	      1.00135     -5.17611     -1.00768        -0.003311      0.122477     -0.017054
O	      1.03472     -5.29248     -5.18216        -0.005636     -0.138778     -0.282138
O	      3.05608     -0.90157     -7.10483         0.010214      0.084516      0.133489
