# total energy = -155.52479609 eV
 
CRYSTAL
PRIMVEC
2.042770 -4.331239 2.040591 
-2.049061 -4.339725 -6.132254 
4.101005 0.002772 -4.090988 
PRIMCOORD
24 1
Li	      3.15268     -5.32819     -5.11367        -0.010345      0.013996      0.005408
Li	     -1.03937     -5.41122     -5.10595         0.006162     -0.010662     -0.008738
Li	      2.98385     -5.41835     -1.02586         0.010718     -0.013105     -0.001638
Li	      3.09863     -3.02225     -7.14954         0.002523     -0.003951      0.011518
Li	      1.02161     -7.60388     -5.12184        -0.012309     -0.014514     -0.003070
Li	      3.07506     -3.34997     -3.06693        -0.000206     -0.019239     -0.010118
Ti	      0.94007     -5.44258     -7.13339        -0.155289     -0.042950      0.037856
Ti	      1.10878     -3.19196     -5.03976         0.163130      0.177970      0.213552
Ti	      3.13224     -7.57724     -7.24112         0.028125      0.021228     -0.230943
Ni	      3.10462     -1.09804     -5.13133         0.013953     -0.004311      0.017545
Ni	      0.99414     -5.41134     -3.05461        -0.001903      0.024700     -0.021205
Ni	      1.01154     -3.31009     -1.02682        -0.017324      0.049220     -0.005618
O	      5.12812     -3.34514     -2.99471         0.015591      0.135900      0.329386
O	      1.00990     -3.34214     -3.15136         0.010536      0.135990     -0.291920
O	      1.03087     -3.43683     -7.15302         0.000090     -0.045053     -0.004380
O	      3.00192     -5.63222     -7.14556        -0.139392     -0.107012     -0.008343
O	      1.09127     -1.21535     -1.01032         0.308428      0.117962      0.008647
O	      3.05275     -5.62080     -3.09594         0.013264     -0.186627      0.000014
O	      3.00767     -3.18561     -5.10082        -0.308691     -0.109243      0.003515
O	      0.98408     -7.51295     -3.08322        -0.088611     -0.114110     -0.000198
O	      3.14057     -3.09058     -1.02197         0.144364      0.074654      0.002508
O	      1.02361     -5.30610     -1.02421         0.000023     -0.159990     -0.011147
O	      0.99972     -5.24885     -5.18461        -0.000941      0.013819     -0.193052
O	      3.06348     -0.90111     -2.99291         0.018104      0.065328      0.160422
