# total energy = -155.67554204 eV
 
CRYSTAL
PRIMVEC
2.046832 -4.319839 2.046881 
-2.036849 -4.309547 -6.128997 
4.092653 0.000195 -4.092436 
PRIMCOORD
24 1
Li	      3.08481     -5.39878     -5.11620         0.012975      0.017495      0.004925
Li	     -1.01034     -5.39401     -5.10816        -0.002951      0.003894      0.004953
Li	      3.08076     -5.39425     -1.02783        -0.003545     -0.016128     -0.015219
Li	      3.06609     -3.19721     -7.14341        -0.002903      0.015765     -0.011033
Li	      1.02851     -7.55134     -5.10070        -0.006125      0.000989      0.004839
Li	      3.06150     -3.27456     -3.05648         0.008303     -0.017306      0.002321
Ti	      1.08990     -5.39164     -7.20899         0.114386     -0.000076     -0.102136
Ti	      0.97927     -3.28241     -0.93312        -0.012451     -0.156350      0.182324
Ti	      0.94285     -3.19104     -5.06126        -0.182103      0.144192      0.008606
Ni	      3.10252     -1.08371     -5.08601        -0.018018      0.030818      0.002857
Ni	      1.00347     -5.39035     -3.09203        -0.004654     -0.026840      0.012325
Ni	      3.08737     -7.55220     -7.15910         0.019158      0.000531     -0.019136
O	      5.12074     -3.32203     -3.12528        -0.009475      0.117408     -0.304196
O	      1.02320     -3.31631     -3.10078        -0.005466      0.145383     -0.064793
O	      1.03410     -3.38711     -7.08884        -0.005815     -0.072817      0.151765
O	      3.01081     -5.50973     -7.15819        -0.261883      0.136629     -0.005306
O	      1.09161     -1.25215     -1.03009         0.158701     -0.035447     -0.003196
O	      3.09782     -5.59905     -3.07663        -0.018328     -0.164632      0.001369
O	      3.11096     -3.15772     -5.10558         0.072052     -0.139674      0.006240
O	      1.08985     -7.47152     -3.06352         0.299190     -0.119507      0.013509
O	      3.00641     -3.08708     -1.02415        -0.148658      0.073262      0.005394
O	      1.04105     -5.19496     -1.04074        -0.004725      0.166047      0.018616
O	      1.04037     -5.22209     -5.17388         0.001109      0.031945     -0.154237
O	      3.07674     -0.96532     -3.00073         0.001226     -0.135586      0.259210
