# total energy = -92.30286429 eV
 
CRYSTAL
PRIMVEC
0.000284 2.072273 2.071334 
6.097149 6.280094 -4.205098 
-4.085428 2.109597 -2.109219 
PRIMCOORD
16 1
Li	     -1.99693      4.28258     -2.20603         0.012217     -0.013131      0.008123
Li	      1.97231      6.14121     -4.06765        -0.012297      0.005787     -0.001413
Li	      0.20428      4.26139     -0.11446         0.032920      0.012762     -0.012833
Li	      2.00862      4.16247     -2.08619        -0.016437     -0.001506      0.001594
Mn	     -4.06272      4.19099     -0.04476         0.057736      0.020886     -0.020962
Mn	     -0.03365      6.26875     -2.12188         0.004447     -0.013806      0.015431
Ni	      4.03278      8.37232     -4.22406        -0.006856     -0.019140      0.020747
Ni	      3.91552      6.23285     -2.08456         0.041129     -0.020647      0.017117
O	      4.14282      6.25804     -4.18049         0.045940      0.000099     -0.005173
O	     -0.01275      6.23074     -4.15599         0.004627     -0.103787      0.104652
O	      1.95442      8.51114     -4.36115        -0.029784      0.036843     -0.039710
O	     -2.18221      4.11338      0.03120        -0.110723      0.120029     -0.117137
O	     -0.00089      4.32068     -2.24534         0.008329      0.015646     -0.010632
O	      1.93154      6.30493     -2.15902        -0.170891     -0.000989      0.005641
O	     -0.01045      1.96105      0.11281         0.086989     -0.038756      0.037826
O	      2.18275      4.16933     -0.02140         0.052653     -0.000290     -0.003269
