# total energy = -154.79272840 eV
 
CRYSTAL
PRIMVEC
4.017819 0.000051 -0.000013 
-2.008976 -4.370032 2.066122 
2.008738 -4.468643 0.000000 
PRIMCOORD
24 1
Li	     -1.00415     -5.51063     -1.19386         0.005543     -0.007696     -0.013816
Li	      3.01305     -5.22748     -5.12164        -0.001499      0.016447      0.004262
Li	      3.01291     -5.80608     -9.53947        -0.000243     -0.008028     -0.007511
Li	      3.01370     -3.51835     -3.32044        -0.001401      0.005335      0.013031
Li	      3.01303     -3.10295     -7.20483         0.000966      0.020371      0.010910
Li	     -1.00405     -3.55610      0.94366        -0.001686     -0.015195     -0.004260
Ti	      1.00255     -5.45954     -7.26568         0.003767      0.183401      0.340216
Ti	      1.00526     -3.29474     -1.25959        -0.000483     -0.179019     -0.325833
Ti	      3.01383     -7.83417     -7.48273        -0.001257     -0.167968     -0.113961
Ni	      3.01358     -1.13116     -1.08599        -0.001223      0.029502      0.031936
Ni	      1.00460     -5.54276     -3.12985        -0.000857      0.078808     -0.055597
Ni	      1.00446     -3.20827     -5.23517         0.000042     -0.094973      0.003599
O	      1.00470     -3.38464      1.14802         0.000803      0.128988      0.181456
O	      1.00500     -3.32972     -3.09890        -0.002638      0.075369      0.424149
O	      5.02181     -3.56951     -7.48851        -0.003317     -0.183211     -0.107427
O	      3.01357     -5.55730     -3.21551        -0.004152      0.161770      0.009818
O	      3.01329     -5.75859     -7.39744        -0.000056     -0.018015     -0.018527
O	      1.00463     -1.32044     -0.97761         0.004546     -0.054216      0.025752
O	      3.01368     -3.20142     -1.03438        -0.000009     -0.136486      0.001989
O	      3.01337     -3.21881     -5.27887         0.002247     -0.162528     -0.015575
O	      1.00424     -7.54400     -7.41789        -0.000062      0.007935     -0.005932
O	      1.00490     -5.18375     -1.02884        -0.001564      0.206781     -0.040680
O	      1.00391     -5.42725     -5.42544         0.001741     -0.078281     -0.412969
O	      5.02217     -5.35011     -9.39331         0.000791      0.190908      0.074973
