# total energy = -155.27211905 eV
 
CRYSTAL
PRIMVEC
-4.091984 0.001351 0.000296 
-2.044076 -4.340343 -6.134034 
2.047004 -4.341278 6.133683 
PRIMCOORD
24 1
Li	     -1.03074     -5.41988      3.05983         0.011363     -0.008296     -0.005667
Li	     -1.00883     -5.36639     -1.02147         0.001798      0.014268      0.004761
Li	     -3.08715     -1.08308      1.02784        -0.000009     -0.015243      0.001468
Li	     -1.00753     -3.32996      0.99424        -0.003713     -0.012983      0.003186
Li	     -1.01742     -3.33112     -3.03345        -0.011417     -0.010953     -0.001492
Li	     -3.07622     -7.35924     -1.02701        -0.007308      0.004967     -0.002595
Ti	     -1.14287     -1.13520     -1.02216        -0.108924     -0.158843     -0.001230
Ti	     -1.10148     -7.54903      1.08179        -0.056114      0.130693      0.211285
Ti	     -3.06318     -3.20680      3.00778        -0.002247      0.124960     -0.227915
Ni	     -3.05779     -5.42253      0.99726        -0.002135      0.000122      0.026402
Ni	     -3.05744     -5.42611     -3.04284         0.004380      0.007107     -0.021958
Ni	     -3.05716     -3.32575     -1.02352         0.003618      0.028255      0.000176
O	     -3.05428     -3.35604     -3.16826        -0.020741      0.122095     -0.292573
O	     -1.00609     -7.75486     -1.02236        -0.016019     -0.024078     -0.010132
O	     -3.05620     -3.35436      1.12320         0.005137      0.129267      0.315108
O	     -1.00124     -5.64236      1.03227        -0.022290     -0.187805      0.006057
O	     -5.10297     -5.64072     -3.07752         0.004778     -0.186615     -0.004532
O	     -3.03174     -1.19817     -1.02213         0.166288      0.113860     -0.002438
O	     -1.01021     -3.20297      3.06536         0.009314     -0.104593     -0.002827
O	     -0.99701     -3.05120     -1.02141        -0.025124      0.196228      0.000587
O	     -3.03232     -7.54430      1.02241         0.090328     -0.103930      0.005522
O	     -1.00909     -0.90633      0.93103        -0.016280      0.049738     -0.180113
O	      1.03353     -5.24839      3.15636        -0.001416      0.047704      0.189510
O	     -3.05426     -5.31931     -1.02177        -0.003268     -0.155926     -0.010589
