# total energy = -154.83510939 eV
 
CRYSTAL
PRIMVEC
-4.063451 0.001042 0.002832 
-2.026241 -4.390525 -6.168269 
2.028519 -4.347281 6.139350 
PRIMCOORD
24 1
Li	     -1.01016     -5.49446      2.97073        -0.004446      0.002528      0.013589
Li	     -1.02046     -5.61149     -0.96689         0.002507     -0.005571     -0.026646
Li	     -3.05582     -0.82309      1.08372        -0.001348     -0.003468      0.014931
Li	     -0.99938     -3.57402      0.99998        -0.001152      0.006008      0.003037
Li	     -5.07897     -3.15486     -3.18788        -0.004735     -0.019436      0.025144
Li	     -3.04057     -7.48960     -0.94164         0.001642      0.013617     -0.023771
Ti	     -1.03170     -1.01176     -0.93951        -0.012754      0.122747      0.188018
Ti	     -3.04891     -3.38711     -1.09216        -0.004655     -0.258585     -0.240253
Ti	     -2.94704     -3.25070      2.95190         0.078087      0.160471     -0.051577
Ni	     -3.04922     -5.53705      1.05161         0.003371      0.043469     -0.015756
Ni	     -3.04835     -5.46094     -3.16150        -0.000295      0.005225     -0.006281
Ni	     -1.01704     -7.56059      1.03518         0.003190     -0.068404      0.008508
O	     -3.04753     -3.35541     -2.96196        -0.000200      0.099277      0.330926
O	     -1.01781     -7.81979     -1.15130         0.001773     -0.127035     -0.085129
O	     -3.04550     -3.40851      1.02551         0.009560      0.103710      0.100386
O	     -1.01751     -5.55029      1.00705         0.004143      0.155184      0.000645
O	     -1.02788     -5.73593     -3.09872         0.029250     -0.187996     -0.020832
O	     -3.04863     -1.28365     -0.99450         0.012754     -0.003419      0.014037
O	     -1.03834     -3.20499      3.02667        -0.132188     -0.101877     -0.027476
O	     -1.01654     -3.10268     -1.01512         0.001657      0.031240      0.010318
O	     -3.04909     -7.56396      1.01697         0.001092     -0.144530     -0.011438
O	     -1.02165     -0.93596      0.93402        -0.004338     -0.103196     -0.345194
O	      1.00868     -5.28055      3.18500         0.011785      0.042455      0.116129
O	     -3.05175     -5.26368     -1.06833         0.005301      0.237587      0.028687
