# total energy = -154.35527718 eV
 
CRYSTAL
PRIMVEC
0.000148 -0.000545 -4.031709 
-2.058082 -2.017113 0.000082 
-4.086061 -0.004523 0.000144 
PRIMCOORD
24 1
Li	     -1.00670     -5.70519     -1.00596         0.002572     -0.006391     -0.001316
Li	     -3.11896     -1.53913     -3.02509        -0.000667     -0.009876     -0.001269
Li	     -3.05975     -9.85742     -3.02759         0.002383      0.002629      0.001908
Li	     -1.00620     -3.65168     -3.02419        -0.001118      0.011979      0.000539
Li	     -5.15431    -12.42931     -3.02662         0.004695     -0.028314     -0.000774
Li	     -3.09594     -7.46783     -5.03404        -0.000171      0.007509     -0.004117
Ti	     -1.13628     -1.21523     -1.01008        -0.098676     -0.418532      0.002859
Ti	     -3.19165    -12.24629     -5.04212        -0.104890      0.336247     -0.001470
Ti	     -5.21171     -7.81527     -3.00922        -0.086144      0.055922      0.003712
Ni	     -3.05079     -5.54414     -3.02323         0.005775     -0.034385     -0.000987
Ni	     -5.09213    -10.02826     -5.04160         0.005565     -0.034833      0.000143
Ni	     -3.05465     -3.52116     -1.00819         0.011199      0.115334     -0.001488
O	     -3.07321    -12.52718     -3.02681        -0.021147     -0.012543      0.001007
O	     -5.10284     -7.92279     -5.04065        -0.011335      0.131806     -0.014471
O	     -3.04687     -3.47560     -3.02419         0.000150      0.102233      0.001481
O	     -0.99460     -5.89268     -3.02402        -0.023051     -0.155293      0.003111
O	     -3.01885     -1.13707     -1.00930         0.152883      0.041777     -0.002496
O	     -3.03009    -10.40302     -5.04227        -0.041711     -0.315576     -0.000198
O	     -0.99336     -3.03795     -1.00888        -0.051069      0.414356      0.001261
O	     -5.07344    -12.21344     -5.04251         0.152508     -0.087472      0.004991
O	     -3.03080     -7.80549     -3.02147         0.134112     -0.055970      0.002720
O	     -0.99634     -0.88976     -3.02521        -0.021389      0.000642      0.001095
O	     -5.07933     -9.79950     -3.02682        -0.008920      0.101932      0.000714
O	     -3.04842     -5.52106     -1.00732        -0.001554     -0.163180      0.003047
