# total energy = -153.10333527 eV
 
CRYSTAL
PRIMVEC
-0.000015 0.002930 -4.024277 
-2.002231 -2.001954 -0.000053 
-4.024995 0.002939 -0.000016 
PRIMCOORD
24 1
Li	     -0.99872     -6.11160     -1.00243         0.004617     -0.014513      0.000872
Li	     -3.00831     -1.14523     -3.02387        -0.007427      0.002246     -0.003428
Li	     -3.01059     -9.88012     -3.01308        -0.003635      0.014071     -0.002697
Li	     -0.99618     -3.92657     -2.96756         0.001371     -0.014124      0.009306
Li	     -5.07558    -12.06142     -3.01333        -0.005107      0.015063     -0.004136
Li	     -3.01027     -7.99311     -5.02626         0.005699      0.001331      0.001404
Ti	     -0.99126     -1.13983     -1.01778        -0.000828      0.001533      0.005482
Ti	     -3.00790     -3.52527     -0.91374        -0.001280     -0.510931      0.085615
Ti	     -3.10544    -12.46490     -5.02609        -0.089452      0.518545     -0.003438
Ni	     -3.01085     -5.91393     -3.01271         0.004550      0.072071     -0.002258
Ni	     -5.02505    -10.07258     -5.02536         0.001961     -0.076130     -0.002295
Ni	     -5.02248     -7.99301     -3.01411        -0.000717     -0.001741     -0.000842
O	     -3.00522    -12.85371     -3.01524        -0.010908     -0.056975     -0.003159
O	     -5.02213     -8.08042     -5.02627         0.000170      0.141256     -0.003786
O	     -3.00775     -3.41590     -3.03225         0.001265      0.050525     -0.125229
O	     -0.99828     -5.81650     -3.01696         0.002747      0.082304     -0.000869
O	     -3.00326     -1.33986     -1.02034        -0.006366      0.005338      0.003587
O	     -2.99987    -10.65419     -5.02537        -0.040894     -0.529487      0.000786
O	     -0.99470     -3.13842     -1.00780         0.004786      0.056804      0.011830
O	     -5.00518    -12.56941     -5.02646         0.136699     -0.050032     -0.002881
O	     -3.00994     -7.90594     -3.01446        -0.000545     -0.146879     -0.001806
O	     -0.98791     -0.93762     -3.02899         0.001159     -0.005090     -0.003362
O	     -5.02060    -10.17229     -3.01327        -0.000046     -0.079597     -0.000208
O	     -3.01047     -5.33571     -1.01273         0.002181      0.524413      0.041511
