# total energy = -51.76640459 eV
 
CRYSTAL
PRIMVEC
2.098868 2.097317 0.000402 
-2.092357 2.091639 4.141448 
2.117027 -2.114734 4.165566 
PRIMCOORD
8 1
Li	      1.05470      1.04836      1.04137        -0.003304      0.002996     -0.007318
Li	      1.05457      3.13792      3.10580         0.000015      0.002743      0.001606
Ti	      1.06759     -1.05434      3.12221        -0.001164      0.010590      0.018731
Ni	      1.06408      1.03826      5.19254         0.012716     -0.015455     -0.003021
O	      0.98470      1.11608      7.27900        -0.081723      0.081668      0.107373
O	      1.03264     -1.02968      5.07928         0.092361     -0.090354     -0.127140
O	      1.14622      0.95656      3.10734         0.077561     -0.082882     -0.107202
O	     -1.00229      1.00670      5.30803        -0.096461      0.090695      0.116971
