# total energy = -98.37759481 eV
 
CRYSTAL
PRIMVEC
2.074108 2.073555 0.000120 
-2.074088 0.000101 2.073670 
10.803193 -12.872787 10.800651 
PRIMCOORD
16 1
Li	      1.31882      0.75628      1.31442        -0.013863      0.014767     -0.011072
Li	      3.23083     -3.23134      3.22705         0.011868     -0.013273      0.010492
Li	      5.14521     -5.14673      7.21552        -0.001600     -0.003712     -0.001708
Li	      7.59633     -9.66715      9.67028         0.000123     -0.000346     -0.000509
Ti	      7.53009     -7.52607      7.52942        -0.054653      0.051018     -0.051455
Ti	      9.73696     -9.73385     11.81065         0.024171     -0.019461      0.022962
Ni	      1.15538     -1.15579      3.22549         0.421256     -0.425922      0.416080
Ni	      5.30774     -3.23520      5.30402        -0.422461      0.414009     -0.418330
O	      3.15729     -1.08453      3.15365        -0.171492      0.182378     -0.159530
O	      5.28773     -5.28890      5.28406         0.205708     -0.219336      0.215419
O	      7.53084     -7.52732      9.60422        -0.027563      0.034321     -0.034240
O	      9.67295    -11.74359     11.74705        -0.053625      0.056162     -0.059050
O	      1.17592     -1.17541      1.17211        -0.191424      0.186046     -0.199475
O	      3.30538     -3.30674      5.37556         0.154345     -0.135347      0.142693
O	      5.52024     -7.59015      7.59345         0.094210     -0.091006      0.095498
O	      9.73682     -9.73309      9.73648         0.024998     -0.030299      0.032228
