# total energy = -87.39654198 eV
 
CRYSTAL
PRIMVEC
0.069380 2.136739 2.280066 
2.075545 -2.064427 -0.002145 
10.314622 12.312492 0.030331 
PRIMCOORD
16 1
Li	      4.37096      2.21809     -2.83182        -0.004436     -0.012356     -0.038394
Li	      4.25177      6.26136     -2.33072        -0.001192     -0.002703     -0.010342
Li	      6.28507      6.23477     -4.04439         0.003260     -0.002793      0.010819
Li	      8.25749      6.14136     -5.79688        -0.000289     -0.000812      0.035426
Mn	     10.24418     12.26560    -10.39945         0.022080      0.029822     -0.015852
Mn	      2.13956      2.16683     -0.14017        -0.004831      0.009609      0.008744
Ni	      8.21070     10.22815     -5.77441         0.017242      0.013381     -0.009784
Ni	     10.21222     10.16095     -8.11535         0.049933      0.049926     -0.058808
O	     10.27859     12.29567     -8.24028         0.026689      0.029351     -0.001301
O	      8.32918      8.27439     -6.03656        -0.101295     -0.106544      0.050365
O	     10.26670      8.14354     -8.35213        -0.036269     -0.038728      0.058562
O	      6.24662      8.26570     -3.69616         0.011489      0.012201     -0.003601
O	      4.22786      4.15934     -2.49790        -0.006979     -0.014362     -0.019543
O	      6.30624      4.18438     -4.39938        -0.008804     -0.008896      0.014125
O	      2.15890      0.11310      0.11294         0.040821      0.043841     -0.025653
O	      1.98400      4.08857      0.03249        -0.007419     -0.000937      0.005239
