# total energy = -89.78408979 eV
 
CRYSTAL
PRIMVEC
0.000049 2.098684 -2.098747 
-0.000162 2.098681 2.098744 
16.374537 -0.000405 -0.000794 
PRIMCOORD
16 1
Li	      2.14037      2.09923     -0.00254         0.021422      0.000058      0.002348
Li	      6.15710      2.09991     -0.00119        -0.024947     -0.002029      0.000768
Li	     10.19900      2.09933     -0.00070         0.027262     -0.001170     -0.000400
Li	     12.01678      2.09867      2.09689        -0.057175      0.000744      0.001639
Mn	      0.19376      2.09896      2.09605         0.080676      0.000477     -0.000491
Mn	      4.13554      2.09957      2.09689         0.114064      0.000332     -0.000213
Ni	      8.11899      0.00103     -0.00057        -0.156938      0.000199     -0.001652
Ni	     14.25814      2.09838     -0.00339         0.059767      0.000579      0.000093
O	     14.61256      2.09840      2.09519         0.114511      0.000495      0.002287
O	      0.09742      2.09894     -0.00269         0.054592      0.000883     -0.001557
O	     10.05524      0.00074     -0.00070         0.200764     -0.000990     -0.000834
O	     12.34521      2.09864     -0.00207        -0.226941      0.000342      0.001120
O	      5.99297      0.00116     -0.00139        -0.074910     -0.001137      0.000175
O	      8.07655      2.09976     -0.00059         0.013201     -0.000647     -0.000950
O	      2.10765      2.09918      2.09643        -0.118670      0.001466     -0.001625
O	      4.09061      2.09959     -0.00192        -0.026680      0.000397     -0.000708
