# total energy = -103.08810709 eV
 
CRYSTAL
PRIMVEC
2.080318 2.078890 0.000105 
-4.185108 4.182470 8.616918 
4.181231 -2.099330 2.155909 
PRIMCOORD
16 1
Li	     -0.98297      3.06059      5.10857         0.001226     -0.003641      0.007964
Li	     -1.05946      5.21223      7.53836         0.000555      0.001461     -0.000785
Li	      0.97118      1.10471      1.35131        -0.002377      0.004174     -0.007087
Li	      1.03479      3.12196      3.23118        -0.000333     -0.000611     -0.003489
Ti	     -1.06016      3.13449      9.82534        -0.050626      0.052298      0.362349
Ti	      1.04382      3.11277      7.40621         0.056273     -0.056030     -0.334599
Ni	      1.09879      0.97891      5.29161        -0.069677      0.068579      0.066048
Ni	      3.07101      1.08643      3.32462         0.074516     -0.074810     -0.068805
O	      3.14708     -1.06829      3.05138         0.072561     -0.072332     -0.416018
O	      3.10305      1.05391      5.35611         0.120946     -0.116872      0.108473
O	      0.92524      1.15081      7.59136        -0.134369      0.133378      0.024653
O	      0.94850      3.20673      9.59466        -0.050057      0.052920     -0.035915
O	     -0.96391      3.04084      7.63754         0.047820     -0.050413      0.034153
O	      3.24423      0.91418      1.02432         0.133935     -0.132629     -0.032026
O	      1.06696      1.01129      3.26001        -0.124461      0.118934     -0.104032
O	      1.02274      3.13348      5.56437        -0.075931      0.075594      0.399116
