# total energy = -103.58753069 eV
 
CRYSTAL
PRIMVEC
2.098884 2.098720 0.000057 
6.320579 -4.221168 6.246725 
2.095277 -2.095221 -4.142593 
PRIMCOORD
16 1
Li	      3.19884     -1.09933     -3.16990         0.002292     -0.001190     -0.001551
Li	      3.09496      1.09933     -0.96331        -0.000713      0.000517     -0.004910
Li	      5.25977     -1.06401      3.12697        -0.000743     -0.000865     -0.000800
Li	      5.25624     -3.16235      1.05505         0.000046      0.001433      0.002198
Ti	      5.24698     -1.04839     -1.01870        -0.009804      0.014600      0.031187
Ti	      7.36461     -3.17918      3.12810         0.002147     -0.008351     -0.022817
Ni	      3.15074     -1.05569      1.04622         0.011590     -0.007891     -0.008313
Ni	      7.36379     -5.26837      1.06321        -0.006156      0.007060      0.004755
O	      5.16761     -3.07281     -1.01472        -0.078868      0.074579      0.090181
O	      5.21850     -1.02516      0.93212         0.099639     -0.098012     -0.136224
O	      7.34241     -3.14732      5.10402         0.089850     -0.095033     -0.098395
O	      7.26585     -5.17083      3.15129        -0.082702      0.084381      0.110474
O	      3.24838     -1.15292     -1.04226         0.088760     -0.092937     -0.103673
O	      3.17683      1.01759      1.14821        -0.095491      0.095198      0.100666
O	      7.39478     -3.20021      1.17791        -0.098455      0.101343      0.126843
O	      5.34694     -3.25094      3.12434         0.078608     -0.074834     -0.089620
