# total energy = -103.16068366 eV
 
CRYSTAL
PRIMVEC
2.086762 2.086492 0.000063 
-4.244445 4.243974 -0.011237 
0.011712 -0.011468 8.405326 
PRIMCOORD
16 1
Li	     -1.18963      3.27738      5.14741         0.016011     -0.015542     -0.017056
Li	     -1.08018      5.25002      7.21040         0.004925     -0.001462      0.021816
Li	      1.03662      1.04729      1.18784        -0.002535      0.005728     -0.020355
Li	     -0.93577      0.93875      3.25067        -0.015406      0.014090      0.017660
Ti	     -1.03379      1.03637      7.21680         0.029095     -0.028176     -0.363722
Ti	     -1.09112      3.18043      1.18167        -0.023591      0.023752      0.362584
Ni	     -3.13457      5.22290      5.18455        -0.068999      0.067335      0.057235
Ni	     -3.23526      3.23713      3.20276         0.065527     -0.067543     -0.057388
O	     -1.09003      3.17864      3.01845         0.066202     -0.067186     -0.395614
O	     -3.20410      3.20539      5.24604         0.119891     -0.118509      0.113858
O	      0.93873      1.15021      7.41600        -0.107142      0.108157      0.047184
O	     -1.17174      1.17440      0.98013        -0.057189      0.055720     -0.028145
O	     -0.95269      3.04231      7.41831         0.053056     -0.053303      0.027682
O	     -3.06376      3.06615      0.98249         0.106753     -0.107077     -0.047334
O	     -3.16612      5.25465      3.14124        -0.116181      0.115655     -0.115848
O	     -1.03485      1.03754      5.37994        -0.070416      0.068362      0.397442
