# total energy = -103.14224783 eV
 
CRYSTAL
PRIMVEC
2.090829 2.091078 0.000033 
-6.333779 6.334474 4.244766 
2.116811 -2.116956 4.261043 
PRIMCOORD
16 1
Li	     -0.89685      2.98526      5.16899        -0.013466      0.014707     -0.017596
Li	     -3.11650      3.11859      7.38539         0.019524     -0.021037     -0.018847
Li	      0.99896      1.09230      1.11955        -0.024445      0.023609      0.017972
Li	      0.86600      3.31427      3.33451         0.015095     -0.014197      0.020042
Ti	     -3.15352      5.24732      5.20169         0.089965     -0.092902     -0.345016
Ti	      3.12609      1.05548      3.30416        -0.091974      0.092461      0.348946
Ni	      0.99520      1.09446      5.39000         0.064144     -0.065396     -0.066914
Ni	     -1.02565      5.20660      3.11548        -0.063578      0.065778      0.061033
O	     -3.27010      5.36204      7.36473        -0.059456      0.058836     -0.033644
O	      1.04610      3.13555      0.88907         0.071122     -0.070584     -0.382640
O	     -1.10365      3.19342      3.16338         0.115871     -0.115197      0.106102
O	     -3.29667      3.29823      5.37179        -0.146920      0.145387      0.029219
O	     -3.19162      5.28355      3.35563        -0.071156      0.069962      0.386595
O	     -5.18257      5.18351      5.38639         0.060342     -0.060373      0.030474
O	      1.17786      0.91288      3.13379         0.146484     -0.146038     -0.031794
O	      1.07291      3.10725      5.34172        -0.111552      0.114982     -0.103931
