# total energy = -103.85224200 eV
 
CRYSTAL
PRIMVEC
2.076654 4.151837 2.076501 
-2.121193 4.196394 -2.120709 
-4.182893 0.000118 4.182263 
PRIMCOORD
16 1
Li	     -3.12297      5.23083      0.96675         0.013415      0.001576     -0.015289
Li	     -3.16589      7.30730      3.08370        -0.007302     -0.001993      0.007998
Li	     -1.09321      5.23291     -1.06294         0.007440     -0.003510     -0.009360
Li	     -1.13355      7.30546      1.05532        -0.019862      0.001730      0.014983
Ti	     -3.08847      3.13183      3.04905         0.108903     -0.004323     -0.097864
Ti	      0.94846      5.20623      1.09187        -0.093410      0.001304      0.093143
Ni	     -1.08324      5.20713      3.12284         0.015975     -0.002112     -0.016382
Ni	     -1.05527      3.13114      1.01850        -0.019859      0.003762      0.024228
O	     -1.07788      1.04423      0.94299         0.102684     -0.082120     -0.160784
O	     -1.15888      3.12044      3.10042        -0.173631     -0.082232      0.097707
O	     -3.24551      1.14893      3.12845        -0.052792      0.118114      0.095773
O	     -3.15558      3.22493      5.11535         0.092610      0.114663     -0.046289
O	     -3.16578      5.11349      3.20867        -0.097733     -0.114915      0.045807
O	     -5.15227      3.03742      3.11905         0.046625     -0.113052     -0.099731
O	     -0.98038      5.21860      1.04106         0.172942      0.081041     -0.101991
O	     -3.13794      3.14279      1.12114        -0.096007      0.082067      0.168052
