# total energy = -153.86242210 eV
 
CRYSTAL
PRIMVEC
2.091403 2.092060 -0.000148 
4.315856 -4.317911 8.555582 
4.295526 -6.388801 -2.086046 
PRIMCOORD
24 1
Li	      5.55089     -5.55694     -0.76320        -0.004453      0.007851     -0.011484
Li	      7.29777     -7.30063      2.99660         0.003327     -0.004309      0.008279
Li	      5.51990     -3.43208      1.20248        -0.016667      0.022191      0.005717
Li	      3.03384     -3.03588      3.11790         0.016960     -0.016525     -0.009105
Li	      7.49828     -5.41125      5.20793         0.003014     -0.003654      0.023852
Li	      5.36843     -5.37769      7.66781        -0.001502      0.001920     -0.021162
Ti	      3.16651     -3.16842     -0.88563        -0.039570      0.038679      0.490897
Ti	      9.63104     -7.53800      5.39492         0.009072      0.000022      0.001464
Ti	      5.38832     -3.29883      5.20598         0.042452     -0.041949     -0.483729
Ni	      5.44455     -5.44767      3.13952        -0.088320      0.093838      0.101891
Ni	      7.47029     -5.38242      1.11644         0.000549      0.001311      0.000078
Ni	      3.10906     -1.02079      1.18005         0.091925     -0.091391     -0.100384
O	      5.24393     -5.24580      5.46527        -0.115113      0.107654      0.005010
O	      3.19782     -3.20032      0.91831         0.036527     -0.032833     -0.518671
O	      5.22569     -3.13590      7.46429        -0.111196      0.100142     -0.024273
O	      5.18945     -3.09911     -1.17999        -0.062623      0.062001     -0.113855
O	      3.17961     -1.09021      3.16691         0.079326     -0.081050      0.144132
O	      7.44118     -5.35233      3.28794         0.131317     -0.132959      0.074551
O	      5.37404     -5.37783      1.15270        -0.079482      0.075532     -0.140386
O	      7.64442     -7.64861      5.41242         0.101834     -0.104544      0.021910
O	      5.35701     -3.26778      3.40220        -0.038609      0.033050      0.516781
O	      3.36562     -3.36820      5.50043         0.062229     -0.059695      0.110408
O	      7.62679     -5.53971      7.41155         0.110159     -0.108853     -0.010753
O	      1.11232     -1.11613      1.03172        -0.131156      0.133570     -0.071169
