# total energy = -154.72143915 eV
 
CRYSTAL
PRIMVEC
2.094643 2.095079 -0.000066 
6.362420 -4.268803 6.386849 
4.194387 -2.099989 -6.317517 
PRIMCOORD
24 1
Li	      5.28678     -1.09406     -5.02512        -0.021692      0.020945     -0.021848
Li	      3.29603      0.89646     -1.01512        -0.015255      0.014668      0.004182
Li	      5.13778     -0.94496      3.16818         0.011702     -0.014237     -0.006363
Li	      3.34841     -1.25170     -2.98072        -0.029363      0.031266      0.007093
Li	      5.24699     -3.14956      0.85973         0.021465     -0.020998      0.019691
Li	      7.18397     -2.99203     -1.18480         0.031043     -0.029983     -0.005486
Ti	      9.48363     -5.29112     -0.90171        -0.046428      0.046016      0.252126
Ti	      3.17311     -1.06865      1.07644         0.003100      0.000933      0.004563
Ti	      7.41293     -3.21950      3.12249         0.049660     -0.050225     -0.245555
Ni	      5.30176     -1.10943     -1.06673        -0.024306      0.026649      0.035969
Ni	      9.49538     -3.20811      1.11039        -0.000483     -0.002885      0.000883
Ni	      7.32547     -1.03922     -3.09882         0.029887     -0.027852     -0.033872
O	      5.18116     -0.98871      1.10356        -0.067675      0.064811      0.073491
O	      7.35128     -1.06428     -1.04673         0.106354     -0.103273      0.100887
O	      9.38355     -3.09547      3.24048        -0.119277      0.115852      0.092245
O	      7.35458     -3.16284     -3.27827         0.078825     -0.079860     -0.112310
O	      9.46576     -5.27360      0.97060         0.100893     -0.101854     -0.308609
O	      7.29142     -3.09844      5.23689        -0.069945      0.068401     -0.033754
O	      5.27623     -1.08479     -3.11892        -0.109071      0.112550     -0.095477
O	      3.25244      0.93942      1.04929         0.062505     -0.064263     -0.078042
O	      9.60742     -3.32066     -1.01998         0.117782     -0.116347     -0.087654
O	      3.17871     -1.08138     -0.88619        -0.083614      0.082011      0.108427
O	      5.41043     -3.31267      3.30139         0.071005     -0.070951      0.032900
O	      7.43016     -3.23791      1.25065        -0.097114      0.098627      0.296512
