# total energy = -91.06656035 eV
 
CRYSTAL
PRIMVEC
4.162463 0.000067 -0.000213 
-2.080900 4.100331 -6.206272 
-2.081157 4.084644 2.058437 
PRIMCOORD
16 1
Li	      2.08142      2.08305      0.00820         0.000871      0.000444     -0.135920
Li	     -0.00027      2.05849     -2.19410         0.003606     -0.012883     -0.014395
Li	      0.00204      6.08351     -2.09944        -0.001028      0.036295      0.120652
Li	      0.00237      3.96599     -4.05042        -0.000179     -0.045686      0.049567
Mn	     -2.07942      4.15420     -6.14236        -0.003961      0.409626     -0.167415
Mn	      0.00041      4.15186     -0.05043         0.001640      0.090476     -0.058072
Ni	      2.08233      4.02898     -2.13793        -0.000866     -0.134737      0.062782
Ni	     -2.07929      6.13774     -4.10542        -0.000843      0.111157      0.648953
O	     -2.07843      6.04084     -2.25080        -0.009746      0.153020      0.232677
O	     -2.08081      4.13086      0.07756        -0.000606     -0.093507      0.154008
O	      0.00223      6.34630     -4.11596         0.002668     -0.211183     -0.127772
O	      0.00126      4.09145      1.95384        -0.001832      0.263781      0.128535
O	     -2.07787      4.18503     -4.20678        -0.007892     -0.508553     -0.329931
O	      2.08089      1.95862     -2.08451         0.007771     -0.025970     -0.029784
O	      0.00061      4.00866     -1.94034         0.007627      0.098988     -0.088970
O	      0.00045      2.06250      0.17757         0.002770     -0.131268     -0.444914
