# total energy = -155.35424839 eV
 
CRYSTAL
PRIMVEC
2.098204 2.098727 -0.000164 
8.427461 -6.331385 10.415874 
2.092159 -2.092323 -4.143509 
PRIMCOORD
24 1
Li	      3.19082     -1.10009     -3.17325         0.008192     -0.002035     -0.001430
Li	      3.09549      1.09675     -0.96946        -0.005882      0.009821      0.003039
Li	      5.25021     -1.06317      3.12771        -0.002471      0.005132      0.000967
Li	      7.36927     -3.17907      7.29202         0.005569     -0.002497     -0.002648
Li	      5.25594     -3.16232      1.05530         0.000281      0.000511     -0.004392
Li	      7.36425     -5.26616      5.22108        -0.004917      0.002371      0.005915
Ti	      5.24777     -1.04141     -1.01932        -0.017881      0.027156      0.023186
Ti	      7.35710     -3.16613      3.13875         0.008179     -0.006984      0.013893
Ti	      9.48114     -5.27541      7.29457         0.019525     -0.008914     -0.017310
Ni	      3.14793     -1.05353      1.04564         0.008788     -0.008723     -0.008148
Ni	      5.26179     -3.16917      5.21053         0.003391     -0.002854     -0.002083
Ni	      9.46907     -7.37521      5.23030        -0.004991      0.003882      0.005013
O	      5.16429     -3.07043     -1.01548        -0.075803      0.066092      0.092911
O	      5.21392     -1.02184      0.93039         0.107593     -0.110467     -0.121762
O	      7.32689     -3.13558      5.09546         0.101633     -0.099835     -0.126947
O	      9.44897     -5.25620      9.27090         0.093774     -0.100791     -0.101512
O	      7.27360     -5.17992      3.15705        -0.086372      0.084072      0.081826
O	      9.37241     -7.27754      7.31845        -0.088975      0.076590      0.108070
O	      3.24497     -1.15022     -1.04290         0.088955     -0.097436     -0.104685
O	      3.17378      1.01839      1.14819        -0.091299      0.088713      0.106416
O	      7.38808     -3.19713      1.18287        -0.107633      0.112150      0.101728
O	      9.49970     -5.30899      5.34530        -0.099689      0.105198      0.127699
O	      5.34391     -3.25096      3.12062         0.071656     -0.067691     -0.088175
O	      7.45189     -5.35945      7.29162         0.068378     -0.073462     -0.091571
