# total energy = -154.67865407 eV
 
CRYSTAL
PRIMVEC
2.101162 2.099926 0.000166 
-4.257168 2.155200 6.206045 
4.314168 -4.310996 8.310643 
PRIMCOORD
24 1
Li	     -0.86280      2.96503      5.31939        -0.022693      0.022379     -0.018175
Li	      1.22256      0.88092      0.99595        -0.006977      0.009517     -0.022586
Li	      0.97883      1.12354      9.18908         0.002882     -0.003076      0.039787
Li	     -0.97000      0.97041      3.24270        -0.003383      0.002798     -0.037820
Li	      3.04328     -0.94214      5.23004         0.008364     -0.008031      0.021161
Li	      0.87178     -0.87127      7.11279         0.021032     -0.020630      0.018163
Ti	      3.22247     -1.12183      9.21632         0.048808     -0.045323     -0.253973
Ti	      1.08304     -1.07984      3.11297         0.001582     -0.000109     -0.001896
Ti	      1.10024     -1.09502     11.52586        -0.046431      0.042821      0.256011
Ni	      1.02538      1.07641      5.21863         0.039327     -0.038495     -0.045450
Ni	      3.23952     -3.23609      7.26804         0.000219     -0.000068      0.000129
Ni	     -1.01644      1.01759      7.21350        -0.041410      0.040330      0.045912
O	      1.05929     -1.05764      5.06970         0.081568     -0.088352     -0.115365
O	      1.03097      1.07023      7.26986         0.108159     -0.101101      0.092946
O	      3.09873     -3.09700      9.36772        -0.115449      0.124341      0.084864
O	     -1.16114      1.16051      9.36388        -0.068139      0.075437      0.082351
O	      3.09944     -0.99646     11.33903        -0.068610      0.066574     -0.021336
O	      1.04734     -1.04518     13.39386         0.100699     -0.098542     -0.293531
O	     -1.05028      3.15216      7.36230        -0.084367      0.084134      0.119602
O	      1.16958      0.93319      3.06829         0.067754     -0.073157     -0.082275
O	      1.22410      0.88000     11.37459         0.114425     -0.122181     -0.085462
O	     -1.02237      1.02376      5.16220        -0.104964      0.101087     -0.094776
O	      3.27561     -1.17171      7.34840        -0.101555      0.098000      0.293142
O	      1.22343     -1.22021      9.40296         0.069160     -0.068352      0.018578
