# total energy = -153.89968062 eV
 
CRYSTAL
PRIMVEC
2.134986 2.135193 -0.000124 
-10.068940 10.070677 0.005477 
0.193477 -2.329114 5.662839 
PRIMCOORD
24 1
Li	     -6.97858      9.11481      4.85523        -0.023045      0.025449      0.001895
Li	     -3.31991      5.45693      0.85990        -0.019636      0.016535     -0.026506
Li	     -5.79659      5.79751      2.70618         0.021395     -0.022983     -0.001559
Li	     -0.96253      3.09893      4.71349        -0.001225      0.004077     -0.030327
Li	      0.42043      1.71598      1.03171         0.015055     -0.014414      0.022055
Li	     -1.74377      1.74537      2.84107         0.003101     -0.002157      0.033646
Ti	     -3.82811      5.96447      4.76273         0.160314     -0.160923     -0.289017
Ti	     -6.48729      8.61789      0.95019        -0.002199     -0.004006     -0.000527
Ti	     -8.94875      8.94900      2.79827        -0.157253      0.160220      0.298695
Ni	      0.88976      1.24617      4.64919         0.082866     -0.079244     -0.080811
Ni	     -1.44993      3.58654      0.94583         0.002990     -0.002413      0.002233
Ni	     -3.59613      3.59795      2.90599        -0.081207      0.078313      0.079876
O	     -8.97847      8.97993      4.64801         0.039672     -0.044479     -0.347187
O	     -6.63050      6.63227      1.14989        -0.078551      0.085061     -0.028692
O	     -6.85774      8.99419      2.83452        -0.024056      0.020534     -0.140040
O	     -4.06798      4.06941      5.05526        -0.179303      0.173523      0.016634
O	     -1.45700      1.45845      0.98247         0.070045     -0.069056      0.126324
O	     -1.61267      3.74946      3.03428         0.115876     -0.115783      0.092433
O	     -8.47281      8.47428      0.74959         0.080014     -0.076309      0.029963
O	     -3.79773      5.93385      2.91333        -0.040045      0.043729      0.339922
O	     -5.91831      5.91924      4.72782         0.023306     -0.025733      0.132211
O	     -3.57751      3.57926      0.90956        -0.072679      0.071878     -0.123318
O	      1.36060      0.77348      2.49969         0.179806     -0.174728     -0.016328
O	     -1.09354      1.09459      4.52032        -0.115242      0.112910     -0.091573
