# total energy = -155.66199331 eV
 
CRYSTAL
PRIMVEC
-4.199722 4.192739 -0.035649 
-4.179295 -4.172350 -0.000894 
2.122316 -0.031003 6.284574 
PRIMCOORD
24 1
Li	     -3.18606     -1.10091      3.12568        -0.011680     -0.015852     -0.000584
Li	     -3.13786      1.01704      5.24504        -0.000974      0.015363     -0.001398
Li	     -1.04129     -1.04959      1.04656         0.001894      0.002487      0.003603
Li	     -1.02163      1.04816      3.09701         0.002019     -0.014038      0.001444
Li	     -5.15298     -1.00674      5.21701         0.012439      0.018856     -0.002069
Li	     -3.13122     -3.13464      1.04556         0.000530      0.001826      0.004098
Ti	     -3.14008      1.04758      1.02911        -0.001539      0.002102      0.001550
Ti	     -3.04731      3.20146      3.14439         0.120311      0.107728      0.049288
Ti	     -1.11037     -1.13495      5.19667        -0.122838     -0.108904     -0.049655
Ni	     -3.12612     -3.16413      5.23931         0.025215      0.012691     -0.025949
Ni	     -5.21118      1.05756      3.10252        -0.025436     -0.013769      0.020880
Ni	     -5.23006     -1.03752      1.02815        -0.000395     -0.000592     -0.000864
O	     -5.30819     -1.02425      3.12487        -0.194135     -0.104925      0.084164
O	     -5.24247      1.13488      5.20463         0.103500      0.182122      0.080574
O	     -3.13307     -0.96373      0.94799         0.098195      0.084967     -0.056788
O	     -3.13844      1.14343      3.01802         0.104381      0.050192     -0.096503
O	     -3.21985      3.11790      5.09200        -0.039292     -0.088208     -0.123282
O	     -1.17102      1.07639      1.00519        -0.116107     -0.115652      0.115522
O	     -3.02898     -1.08208      5.21632         0.194931      0.102988     -0.085248
O	     -5.10948      1.02080      1.05276         0.117257      0.111872     -0.116640
O	     -0.93840     -1.05223      3.24969         0.039903      0.090234      0.127394
O	     -1.01940      0.92230      5.32448        -0.106918     -0.052435      0.095493
O	     -3.14752      3.06050      1.10976        -0.092965     -0.084996      0.057825
O	     -3.09520     -3.24107      3.13697        -0.108297     -0.184056     -0.082854
