# total energy = -154.90003009 eV
 
CRYSTAL
PRIMVEC
2.091004 2.091767 -0.000171 
4.256947 -4.259014 8.432501 
4.236235 -6.329256 -2.068349 
PRIMCOORD
24 1
Li	      5.28734     -5.29130     -0.82651        -0.005420      0.006849     -0.010576
Li	      7.24609     -7.24462      3.09361         0.009945     -0.013550     -0.001584
Li	      5.41249     -3.32393      1.10768        -0.012765      0.015223     -0.001285
Li	      3.13814     -3.13747      3.11666         0.002381     -0.004046      0.007730
Li	      7.42300     -5.32640      5.18398         0.005985     -0.007339      0.001006
Li	      5.42942     -5.42971      7.39174         0.005350     -0.006442     -0.006243
Ti	      3.15976     -1.06669      1.10402         0.010150     -0.009402      0.135624
Ti	      9.51307     -7.42858      5.41813        -0.011689      0.013498      0.237371
Ti	      5.30803     -3.22153      5.15762         0.023130     -0.018402     -0.349546
Ni	      5.35509     -5.35585      3.12066        -0.072857      0.069149      0.066700
Ni	      7.35416     -5.26378      1.12496         0.040359     -0.036278     -0.041114
Ni	      3.14410     -3.14356     -1.00383         0.049236     -0.050108     -0.016850
O	      5.19633     -5.19841      5.34325        -0.101012      0.096128      0.055676
O	      3.07389     -3.07237      1.05645        -0.086042      0.081878      0.126299
O	      5.17677     -3.08760      7.32019        -0.073499      0.073294     -0.017430
O	      5.25504     -3.16467     -1.15138         0.078073     -0.074556     -0.301602
O	      3.15793     -1.06532      3.01800         0.075152     -0.071926     -0.178954
O	      7.37059     -5.27926      3.19279         0.130326     -0.132915      0.118214
O	      5.31216     -5.31387      1.10571        -0.120268      0.121303     -0.127460
O	      7.52716     -7.53125      5.29018         0.098487     -0.095267     -0.072784
O	      5.28437     -3.19499      3.32417        -0.057684      0.053944      0.381951
O	      3.31094     -3.31394      5.36217         0.064954     -0.060192      0.019810
O	      7.45957     -5.36927      7.49915        -0.132003      0.127824      0.054305
O	      1.15853     -1.15801      1.02241         0.079711     -0.078669     -0.079259
