# total energy = -154.65388732 eV
 
CRYSTAL
PRIMVEC
2.097595 2.096800 0.000202 
6.394455 -4.294627 6.334168 
4.212284 -2.114521 -6.262326 
PRIMCOORD
24 1
Li	      5.05192     -0.85927     -5.37045         0.017894     -0.015048      0.015722
Li	      3.03938      1.15476     -1.09347         0.013875     -0.012288      0.009571
Li	      5.38479     -1.18762      3.35624        -0.003795      0.002028     -0.037391
Li	      3.09027     -0.99647     -3.31907         0.008646     -0.009084      0.038287
Li	      5.44552     -3.34438      1.08993        -0.007026      0.007222     -0.030547
Li	      7.60589     -3.40844     -0.81789        -0.020021      0.019004     -0.019507
Ti	      7.37224     -1.08168     -2.99422        -0.049554      0.051638      0.255250
Ti	      3.19673     -1.09719      0.96876         0.034054     -0.035724     -0.232042
Ti	      7.43365     -3.22754      3.19071         0.003862      0.002807      0.004188
Ni	      5.27881     -1.08345     -1.01685         0.000521      0.000051      0.006616
Ni	      9.56553     -3.27138      1.05987        -0.032447      0.035315      0.033694
Ni	      9.50170     -5.30490     -0.94893         0.040061     -0.039799     -0.036108
O	      5.17678     -0.98155      1.09510        -0.109136      0.108333      0.095484
O	      7.34073     -1.04846     -1.12659         0.093676     -0.094862     -0.279177
O	      9.44550     -3.15228      3.21235        -0.075734      0.070129      0.077340
O	      7.27582     -3.08017     -3.18391        -0.064706      0.063509     -0.025889
O	      9.51708     -5.32071      1.09796         0.102321     -0.103306      0.106571
O	      7.42203     -3.22602      5.14521         0.076892     -0.080416     -0.113054
O	      5.39451     -1.19881     -3.11794         0.106924     -0.103704     -0.081287
O	      3.29956      0.89612      1.13429         0.074822     -0.077214      0.017255
O	      9.55015     -3.25585     -0.99075        -0.104338      0.108917     -0.115866
O	      3.21476     -1.11623     -0.90343        -0.100465      0.102983      0.292230
O	      5.41629     -3.31674      3.16040         0.070970     -0.074967     -0.087826
O	      7.43489     -3.23792      1.22987        -0.077297      0.074478      0.106486
