# total energy = -151.94548982 eV
 
CRYSTAL
PRIMVEC
2.100762 2.101686 -0.000228 
8.637444 -6.540872 10.632898 
2.103145 -2.103604 -4.163012 
PRIMCOORD
24 1
Li	      3.45131     -1.35237     -2.84114        -0.008343      0.003774     -0.023374
Li	      3.45019      0.74988     -0.76219        -0.019741      0.017407     -0.013262
Li	      5.18179     -0.97939      3.12196         0.018523     -0.019655      0.013271
Li	      7.37348     -3.17346      7.24183         0.003906     -0.005331      0.013913
Li	      5.22921     -3.12917      1.00419         0.000757     -0.002549      0.023628
Li	      7.34409     -5.24601      5.24835         0.007994     -0.009700      0.014976
Ti	      9.64272     -7.54827      5.38890         0.016236     -0.015971      0.016023
Ti	      7.43573     -3.24138      3.16702        -0.102799      0.104355     -0.256523
Ti	      9.64306     -5.44736      7.47065         0.017080     -0.015492      0.018182
Ni	      3.23868     -1.13923      1.12816         0.009153     -0.009822      0.009944
Ni	      5.37659     -3.27973      5.30732        -0.029718      0.027444     -0.015952
Ni	      5.33892     -1.13828     -0.95180         0.006900     -0.007054      0.016692
O	      5.29213     -3.19211     -1.01031         0.062153     -0.062784      0.111822
O	      5.27967     -1.07911      1.08096         0.102386     -0.100268      0.076056
O	      7.46596     -3.26750      5.23631         0.096601     -0.100398     -0.030890
O	      9.54208     -5.34520      9.47268        -0.086179      0.078462     -0.094140
O	      7.41288     -5.31549      3.25999        -0.036609      0.034505      0.096459
O	      9.54391     -7.44846      7.39374        -0.079186      0.071475     -0.095556
O	      3.25756     -1.15874     -0.92730        -0.055882      0.061256     -0.107382
O	      3.26130      0.93941      1.14898        -0.081528      0.086783     -0.073050
O	      7.52766     -3.33048      1.28892        -0.088262      0.091460      0.263975
O	      9.70732     -5.51267      5.43887         0.054337     -0.043103      0.074473
O	      5.48719     -3.39211      3.24170         0.147094     -0.145707     -0.098723
O	      7.59409     -5.50021      7.51271         0.045130     -0.039086      0.059437
