# total energy = -154.68613343 eV
 
CRYSTAL
PRIMVEC
2.096661 2.097285 -0.000250 
-4.196927 2.100145 6.296229 
4.276024 -4.278012 8.472914 
PRIMCOORD
24 1
Li	     -1.15731      3.25644      5.18876         0.018257     -0.016970      0.004948
Li	      0.84418      1.25430      0.87917         0.019331     -0.017381      0.017421
Li	      1.24312      0.85218      9.51771        -0.010647      0.011847     -0.004328
Li	     -1.11064      1.11420      2.95058         0.009562     -0.014462      0.019729
Li	      3.21816     -1.12529      5.51566        -0.017108      0.016232     -0.016681
Li	      1.29246     -1.29489      7.57197        -0.027501      0.027763     -0.011384
Ti	     -1.00467      1.00149      7.27140         0.054869     -0.054521     -0.254700
Ti	      1.04853     -1.05339      3.24956        -0.044978      0.045007      0.234329
Ti	      1.11125     -1.10427     11.61287        -0.002869      0.009311      0.004161
Ni	      1.08638      1.00708      5.28632         0.003357      0.000208      0.004432
Ni	      3.17471     -3.17617      7.44774         0.029172     -0.029657     -0.042840
Ni	      3.24458     -1.14891      9.47257        -0.028167      0.029144      0.040193
O	      1.05223     -1.05545      5.12419         0.097770     -0.099713     -0.282882
O	      0.96840      1.12470      7.40935        -0.118724      0.124434      0.071145
O	      3.19576     -3.19674      9.49893         0.107466     -0.106220      0.106227
O	     -1.14861      1.14559      9.37900        -0.070062      0.071846     -0.043458
O	      3.12656     -1.03151     11.63267        -0.071081      0.067884      0.075116
O	      1.10572     -1.10715     13.56976         0.085242     -0.086084     -0.118247
O	     -0.91020      3.00309      7.43071         0.071924     -0.073444      0.029817
O	      1.16688      0.92643      3.16560         0.109416     -0.113517     -0.083675
O	      1.19553      0.89952     11.57931         0.075569     -0.082883     -0.086114
O	     -0.97827      0.97453      5.40210        -0.100533      0.099200      0.303958
O	      3.22141     -1.12624      7.42153        -0.104614      0.102149     -0.090995
O	      1.11994     -1.12208      9.64908        -0.085650      0.089826      0.123828
