# total energy = -154.78090532 eV
 
CRYSTAL
PRIMVEC
2.103218 2.103217 -0.000094 
-8.584385 8.584247 -0.029466 
0.033060 -2.136504 6.205921 
PRIMCOORD
24 1
Li	     -5.40278      7.50586      5.17540        -0.009029      0.010576      0.008563
Li	     -3.10085      5.20191      0.88006         0.014365     -0.014948     -0.004592
Li	     -5.27520      5.27267      3.11042         0.008557     -0.008431      0.012804
Li	     -0.97191      3.07302      5.19835        -0.000078      0.003246     -0.014216
Li	      0.80984      1.29145      1.02725        -0.000328     -0.004527      0.013870
Li	     -1.14655      1.14148      3.11593        -0.005932      0.008670     -0.004457
Ti	     -3.20777      3.21330      3.07833         0.066577     -0.061227     -0.079935
Ti	     -5.35159      7.45610      0.91674         0.017625     -0.020621     -0.224728
Ti	     -7.53055      7.52942      3.18089        -0.111144      0.111657      0.333777
Ni	      0.97500      1.12610      5.22540         0.062100     -0.062203     -0.071790
Ni	     -1.07532      3.17662      0.98440        -0.041734      0.044194      0.022622
Ni	     -3.18991      5.29191      5.15167        -0.025685      0.025691      0.026804
O	     -7.49169      7.49150      5.02367         0.049430     -0.054597     -0.372922
O	     -5.47802      5.47826      1.06100        -0.117571      0.117992      0.079458
O	     -5.48069      7.58447      3.01735        -0.031886      0.031846     -0.042722
O	     -3.27839      3.27671      5.07389         0.097145     -0.097014     -0.083195
O	     -1.12706      1.12514      1.04772         0.110091     -0.108342      0.127304
O	     -1.23210      3.33426      3.12573        -0.113554      0.110736      0.055565
O	     -7.35119      7.35153      1.05172         0.096444     -0.094533      0.018740
O	     -3.15827      5.25898      3.09439         0.035091     -0.039233     -0.114688
O	     -5.32979      5.32938      5.24811        -0.067539      0.069972      0.295085
O	     -3.21383      3.21140      1.15274        -0.071995      0.074541      0.170505
O	      1.21448      0.88864      3.03434         0.148093     -0.149136     -0.036863
O	     -1.02475      1.02262      5.12974        -0.109043      0.105691     -0.114991
