# total energy = -155.24937170 eV
 
CRYSTAL
PRIMVEC
-4.128733 -2.094819 2.093506 
2.100254 -4.238131 2.116705 
2.096711 2.110963 8.454195 
PRIMCOORD
24 1
Li	      1.16582     -3.05649      5.35119        -0.022538      0.007068      0.014594
Li	      1.06015     -1.10742      7.21481         0.004129     -0.007429      0.000637
Li	     -0.98527     -5.23075      5.44792        -0.004070      0.003871     -0.005795
Li	     -1.03573     -1.03955      1.08688        -0.001937     -0.006133      0.011020
Li	     -1.09189     -3.28178      7.31253         0.019709     -0.009062     -0.020014
Li	     -0.98800     -1.06066      9.45722        -0.002423      0.003471     -0.014223
Ti	     -1.00075     -3.08699      3.27487         0.011293      0.228517      0.242031
Ti	      3.15080     -1.06686      9.51012        -0.001454     -0.002145     -0.001401
Ti	      1.07602     -3.25254      9.38413        -0.011668     -0.235802     -0.237901
Ni	      1.05960      1.00293      5.23005         0.000539      0.056958      0.039809
Ni	     -1.01276     -1.05120      5.27181         0.001275     -0.001569      0.001618
Ni	      1.04377     -1.01016      3.22037         0.003829     -0.053986     -0.042493
O	      0.99244     -3.09818     11.52566        -0.089111      0.023369     -0.018357
O	     -0.98577     -3.18250      5.14954         0.075717     -0.087821     -0.266328
O	      0.96886      1.18507      7.38775        -0.058526      0.114571      0.078305
O	     -0.98860     -0.88958      7.39895         0.084371      0.280921      0.088517
O	      0.97641     -3.18871      3.04741        -0.078446     -0.073144     -0.107146
O	      1.02094     -1.01716      5.23939         0.115536     -0.119493      0.127587
O	      1.06039     -3.15761      7.50941        -0.075717      0.088606      0.274116
O	      1.17917     -1.13122      9.58791         0.091047     -0.019146      0.020160
O	     -0.94615     -5.32299      7.42154        -0.118419      0.116653     -0.133746
O	     -1.03669     -1.21252      3.14443        -0.081708     -0.273264     -0.084971
O	     -0.90144     -3.15134      9.61199         0.080765      0.077972      0.113206
O	     -2.99434     -3.28711      3.15527         0.057807     -0.112983     -0.079224
