# total energy = -155.69703459 eV
 
CRYSTAL
PRIMVEC
2.118362 -4.202387 2.114468 
4.177859 -0.002987 -4.175747 
4.162057 6.246917 2.076249 
PRIMCOORD
24 1
Li	      5.22978      0.99104     -3.17245         0.000793      0.001257      0.001135
Li	      3.12301      1.07823     -0.99920         0.001370     -0.002588      0.000253
Li	      3.17136      3.12943      0.95723         0.005447     -0.001888     -0.010912
Li	      5.19019      3.12083     -1.03375         0.008680      0.008043     -0.004299
Li	      5.16607      5.18941      1.12346        -0.007329      0.001845      0.013240
Li	      7.32466      5.19506     -1.06122        -0.005622     -0.008503      0.004887
Ti	      7.38741      1.04994     -1.12147         0.106749      0.027855     -0.118880
Ti	      5.23551     -1.06651     -1.02814         0.006684     -0.000004     -0.012388
Ti	      7.24646      3.06408      1.14149        -0.105992     -0.032417      0.107060
Ni	      5.24303      1.01057      1.04487        -0.004975      0.009412     -0.003302
Ni	      3.14719     -1.06509      1.05927        -0.008463      0.002713      0.002908
Ni	      5.21296      3.10608      3.15027         0.001409     -0.003036      0.005860
O	      5.13285      1.00928      3.12792        -0.176798     -0.088034      0.094437
O	      7.32835      1.11732      0.96579         0.098068      0.114245     -0.046025
O	      3.13411     -3.16080      0.98207         0.091627     -0.088614     -0.169871
O	      5.15029     -3.05717     -1.02550        -0.055787      0.085950      0.092238
O	      5.21735     -1.04792      0.95075         0.097722     -0.113518     -0.103368
O	      7.23672     -0.97603     -1.02928        -0.097551      0.076722      0.102485
O	      5.32147      0.92378     -1.03142         0.053736     -0.080534     -0.089946
O	      3.15966      1.03077      1.13634        -0.086731      0.088383      0.178839
O	      7.30539      2.99653     -0.94602        -0.098803     -0.119245      0.043733
O	      5.32345      3.10752      1.06775         0.169873      0.086870     -0.098915
O	      5.25380     -1.08470     -3.00817        -0.088613      0.106236      0.110724
O	      3.23495     -1.15747     -1.02778         0.094506     -0.071151     -0.099895
