# total energy = -155.66860738 eV
 
CRYSTAL
PRIMVEC
2.120159 -2.107145 4.208032 
0.003975 4.167590 4.182679 
-6.248977 -2.075240 4.168426 
PRIMCOORD
24 1
Li	     -3.08689      1.09904      5.23651        -0.006145      0.006693      0.001895
Li	     -3.13534     -1.07950      3.10305        -0.017915     -0.006845      0.003509
Li	     -1.01564      1.08360      3.16885         0.014432      0.003555     -0.006246
Li	     -1.06234      3.06954      5.21713         0.005041     -0.004106      0.000237
Li	     -5.20155     -1.03810      5.21998         0.000305      0.003791     -0.000785
Li	     -5.19838      1.04749      7.30940         0.000529      0.000398      0.001290
Ti	     -1.01617     -1.05179      5.23988         0.001272     -0.002739      0.003714
Ti	      1.08920     -1.14321      3.07855         0.045341     -0.108187     -0.110736
Ti	     -3.12245     -0.96243      7.40072        -0.042355      0.113282      0.118380
Ni	      1.05613      1.01873      5.23053         0.022279     -0.002540      0.002748
Ni	     -3.08442      1.04460      9.43164        -0.025857     -0.000395     -0.001770
Ni	     -1.01478      1.03123      7.33205         0.000891      0.000230     -0.003926
O	     -3.19722     -3.05410      7.34482        -0.103282      0.034468      0.075998
O	     -3.09994     -1.03023      9.31146         0.090647     -0.096819     -0.192099
O	     -1.02632      1.13665      9.40089         0.102845      0.123024      0.098585
O	     -1.10621     -1.05857      7.24518        -0.050112     -0.098429     -0.073125
O	      1.08059      1.10458      7.31639         0.082807      0.192646      0.084043
O	      0.97117     -1.04746      5.14976        -0.103134     -0.112870     -0.022730
O	     -3.10991      0.95777      7.34614        -0.079890     -0.193339     -0.082837
O	     -3.00399     -1.05659      5.33004         0.103327      0.108321      0.022517
O	     -1.00235      0.92686      5.26274        -0.102508     -0.122934     -0.103200
O	     -0.92686     -1.04638      3.23525         0.050331      0.100306      0.071734
O	     -5.08502     -1.12647      7.30302         0.102517     -0.032399     -0.074496
O	     -5.17807      1.01796      9.51962        -0.091366      0.094887      0.187301
