# total energy = -155.19557775 eV
 
CRYSTAL
PRIMVEC
-2.074294 2.075643 4.165814 
-2.082474 -6.329910 4.214062 
4.231015 -0.019633 4.217571 
PRIMCOORD
24 1
Li	     -0.99917     -3.26827      7.49196        -0.017587     -0.005821      0.001413
Li	      1.06010     -3.33299      5.26855        -0.023047      0.013598      0.017825
Li	      1.09638     -1.09374      7.34465         0.000058     -0.002182     -0.000167
Li	     -1.02239     -5.28930      5.26208         0.000617      0.002739     -0.000851
Li	      3.20849     -0.92890      5.26154         0.022444     -0.013481     -0.019725
Li	     -1.03682      1.10151      2.98105         0.016699      0.006723      0.003072
Ti	     -1.02087     -1.08147      5.23738        -0.001856     -0.001796     -0.000964
Ti	      1.16850     -0.97232      3.16441         0.207543      0.221935     -0.005893
Ti	     -1.13027     -3.27120      3.14975        -0.213358     -0.226094      0.007748
Ni	      1.12400      1.07489      5.23655        -0.057419     -0.056280      0.005804
Ni	      1.06928     -3.26153      9.45676         0.057893      0.060557     -0.004622
Ni	      1.09258     -5.29621      7.37085         0.002261      0.001830     -0.002016
O	      1.06255     -5.27522      9.41003         0.133176     -0.130590      0.105263
O	     -3.09249     -3.07888      7.34033         0.081472      0.261121      0.059005
O	     -1.01892     -3.06769      5.13192         0.070882      0.103116     -0.107672
O	      0.97410      0.98154      7.34711        -0.253913     -0.078301      0.071792
O	     -1.07339     -1.02310      7.21981        -0.022088      0.022753     -0.085422
O	      0.96353     -1.07760      5.14606        -0.091510     -0.063863     -0.098081
O	     -0.95176     -3.24133      9.49710        -0.130406      0.126724     -0.101363
O	      1.22008     -3.16841      7.34669         0.255440      0.078717     -0.069882
O	      1.22931     -1.10855      9.54826         0.097539      0.063954      0.096106
O	     -1.02706     -5.41887      7.34977        -0.084111     -0.257227     -0.058552
O	     -0.96456     -1.14315      3.25674         0.020732     -0.023013      0.082621
O	     -1.01860      0.90151      5.34476        -0.071459     -0.105120      0.104561
