# total energy = -155.63069736 eV
 
CRYSTAL
PRIMVEC
-4.171994 0.000004 4.177128 
0.032070 -4.204421 4.209145 
6.279407 2.043642 4.198731 
PRIMCOORD
24 1
Li	     -1.01095     -3.16556      7.34432         0.000464     -0.001781     -0.003452
Li	      1.06798     -1.07274      7.33609        -0.009843      0.014765      0.014874
Li	      1.07584     -3.16543      5.25440         0.001258     -0.002422     -0.000970
Li	      3.12360     -1.09572      5.24266        -0.016378     -0.002115      0.009534
Li	      3.16162      0.98362      7.33198         0.008749     -0.011400     -0.007224
Li	      5.28106      1.00813      5.25199         0.016304      0.001458     -0.005794
Ti	     -1.02660     -1.06484      5.23716        -0.001611      0.001760      0.000926
Ti	      3.05360      1.04512      3.22943        -0.124443      0.054652      0.131512
Ti	      5.34788     -1.13215      7.26857         0.124774     -0.056892     -0.138854
Ni	      1.04182      1.00962      5.24571         0.006779      0.016143      0.001996
Ni	      3.18661     -1.09675      9.42827        -0.005341     -0.013580     -0.001686
Ni	      1.06009     -1.06434      3.14939         0.000094     -0.002895     -0.001067
O	      3.12318      1.01459      5.13626         0.091210     -0.085696     -0.196703
O	     -1.02273     -3.05936      5.15592         0.119310      0.085975     -0.034487
O	      0.97868      1.11626      7.33817        -0.027893      0.112943      0.084687
O	     -3.19438     -3.15104      7.30797        -0.184800     -0.091865      0.092567
O	      0.94347     -1.04127      5.20827        -0.105225     -0.109752      0.111821
O	     -1.01336     -0.98219      7.24931         0.088366      0.056473     -0.076028
O	     -0.99653     -3.27518      9.52807        -0.119201     -0.087410      0.035205
O	      1.10608     -1.10216      9.53834        -0.093558      0.087971      0.199492
O	      1.17620     -3.18261      7.37689         0.180424      0.090097     -0.092836
O	      3.25043     -1.20361      7.33563         0.026390     -0.111939     -0.084968
O	     -2.99572     -1.08917      5.26750         0.109223      0.112974     -0.113598
O	     -1.03842     -1.14803      3.22631        -0.085052     -0.057463      0.075053
