# total energy = -154.70305207 eV
 
CRYSTAL
PRIMVEC
-0.000060 2.083154 2.083070 
-15.043971 -2.079265 4.162772 
2.157356 -4.182116 2.098928 
PRIMCOORD
24 1
Li	     -9.64881     -5.23814      5.23778         0.002644     -0.003104      0.002635
Li	     -7.23925     -3.07202      5.15535         0.002120      0.001562     -0.001700
Li	     -5.26468     -3.15041      3.15016        -0.004253      0.002031     -0.001658
Li	     -3.05927     -0.99438      3.07699        -0.004977      0.015701     -0.015056
Li	     -1.28730     -1.05999      1.05901        -0.002623      0.006033     -0.006030
Li	    -14.33465     -1.13904      5.30500        -0.003497     -0.009234      0.005246
Ti	     -3.15144     -3.13878      5.22461         0.256906      0.031208     -0.032732
Ti	     -9.51456     -1.04672      5.21678         0.241250      0.021950     -0.022925
Ti	    -11.93806     -3.14522      5.22812        -0.417273     -0.087164      0.087111
Ni	      0.89777     -1.10422      3.18641         0.104173      0.079615     -0.077468
Ni	     -1.06863     -3.07617      3.07559        -0.049860     -0.059768      0.059387
Ni	     -7.46784     -1.00329      3.08628        -0.031539     -0.043724      0.048066
O	    -11.72152     -3.00333      7.16910         0.011984      0.139506     -0.141410
O	     -9.68903     -3.04210      5.12532         0.005104      0.065411     -0.069699
O	     -7.64447     -1.04895      5.21533        -0.304714     -0.079820      0.081799
O	     -5.42609     -0.97441      3.05786         0.106831      0.064592     -0.066313
O	     -3.43405      1.04364      3.12235        -0.269881     -0.065997      0.066763
O	      0.99900     -3.09095      3.09032         0.097049     -0.114861      0.112578
O	    -11.63717     -1.12220      5.28765         0.039867     -0.029512      0.035224
O	     -9.65077     -1.14800      3.23141        -0.059747     -0.110813      0.110906
O	     -5.26653     -3.16681      5.24973         0.011689      0.115190     -0.112672
O	     -3.25421     -3.24402      3.24432        -0.072231     -0.111997      0.113275
O	     -1.10038     -1.05154      3.13434        -0.134262      0.116550     -0.122211
O	    -13.75844     -3.09643      5.17856         0.475241      0.056645     -0.053116
