# total energy = -155.69659488 eV
 
CRYSTAL
PRIMVEC
-4.150768 -2.087820 2.085921 
2.109531 -4.214197 2.115374 
2.107327 2.069656 8.389011 
PRIMCOORD
24 1
Li	      1.02815     -3.18879      5.28442        -0.002914      0.004525      0.001398
Li	      1.08080     -1.10564      7.28888         0.000727     -0.007686     -0.017013
Li	     -0.93939     -5.21022      5.26318         0.003883      0.004814      0.012118
Li	     -1.05247     -1.04365      1.09839        -0.002456     -0.000453     -0.002653
Li	     -1.00296     -3.17868      7.29099        -0.001620     -0.013878     -0.003387
Li	     -0.99192     -1.06769      9.41788         0.000723     -0.002466     -0.013029
Ti	      1.05742     -0.97023      3.24101        -0.003060      0.151613      0.135795
Ti	      3.16548     -1.04412      9.50037        -0.003938      0.048813      0.071810
Ti	      1.09018     -3.25260      9.36591        -0.000498     -0.135077     -0.132726
Ni	      1.05643      1.04067      5.24273        -0.001440     -0.016559     -0.012671
Ni	     -1.01582     -1.08047      5.21925         0.006314      0.018313      0.011835
Ni	     -1.01768     -3.15383      3.15091        -0.003015      0.008505      0.017026
O	      0.99961     -3.19103     11.44495        -0.107585     -0.078518     -0.037227
O	     -1.12012     -3.15045      5.20519        -0.106071     -0.082513      0.108919
O	      0.96627      1.12821      7.33863        -0.076832      0.074599      0.097131
O	     -1.02198     -0.95042      7.31430         0.099226      0.200815      0.098324
O	      1.06478     -3.08234      3.04817         0.094078      0.022030     -0.173273
O	      1.06431     -1.05214      5.16040         0.092835     -0.078975     -0.187385
O	      1.08865     -3.19192      7.44867        -0.088258      0.091707      0.194319
O	      1.18943     -1.18175      9.44346         0.113634     -0.037711     -0.081441
O	     -0.98192     -5.36338      7.36446        -0.095617     -0.206664     -0.087134
O	     -0.91814     -1.09255      3.14705         0.105339      0.102786     -0.089702
O	     -0.89692     -3.15788      9.53548         0.078373      0.086736      0.065070
O	     -3.09966     -3.25458      3.21806        -0.101826     -0.154756      0.023900
