# total energy = -155.38148572 eV
 
CRYSTAL
PRIMVEC
2.109827 -2.106074 4.203084 
0.001040 4.179243 4.186026 
-6.271978 -4.177698 2.089923 
PRIMCOORD
24 1
Li	     -3.08080     -0.98419      3.10294        -0.000772      0.007816     -0.004349
Li	     -3.08301      1.07791      5.17959         0.008580      0.002144      0.000051
Li	     -1.01000      0.99603      3.07615         0.011902     -0.004493     -0.004320
Li	     -1.00827     -0.96460      1.07012         0.009672     -0.016628      0.000760
Li	     -5.36935     -3.18197      3.18502         0.002221     -0.005143      0.013417
Li	     -5.29990     -1.09753      5.28242        -0.016388     -0.007094      0.010970
Ti	     -3.15637     -3.14743      5.24414        -0.096081     -0.002751      0.040948
Ti	     -0.91353      1.08473      7.27349         0.190960      0.104053     -0.136966
Ti	     -3.17067     -1.06132      7.33095        -0.132650     -0.038285     -0.007890
Ni	      1.04829      0.99299      5.24128         0.002912      0.052514      0.009061
Ni	     -0.98698     -1.05908      5.24796        -0.028597      0.012491     -0.009696
Ni	      1.04553     -1.05499      3.19350        -0.003646     -0.014037     -0.044030
O	     -3.11952     -0.96421      9.33440         0.106737      0.092925     -0.099689
O	     -3.08542     -3.05021      7.23695         0.077964      0.104004     -0.099764
O	     -1.15669     -3.13714      5.14148        -0.079429     -0.104088     -0.037834
O	     -1.14440     -0.96313      7.33717        -0.063171      0.040476      0.097037
O	      0.97959      1.02749      7.34154        -0.223221     -0.088787      0.079470
O	      1.03394     -1.02227      5.21237         0.117017     -0.126336      0.116159
O	     -3.12170     -1.14877      5.34126        -0.086366     -0.081419      0.099533
O	     -3.07336     -3.22999      3.22977         0.017124     -0.070644      0.068066
O	     -1.03857      1.01546      5.36368        -0.097632      0.101558      0.194560
O	     -1.05107     -1.16526      3.16367        -0.089469     -0.155759     -0.096566
O	     -5.08843     -3.15204      5.24616         0.175050      0.099110     -0.102602
O	     -5.08459     -1.07996      7.36235         0.197282      0.098371     -0.086325
