# total energy = -155.37829228 eV
 
CRYSTAL
PRIMVEC
2.112296 -4.208363 2.113800 
4.183559 0.000062 -4.186328 
4.174687 6.272695 2.084180 
PRIMCOORD
24 1
Li	      5.36659      1.07346     -3.12303        -0.009733      0.008816      0.007197
Li	      3.15627      1.07353     -0.90669         0.007467      0.009108     -0.013567
Li	      3.05402      3.05064      0.96783        -0.017084     -0.010586     -0.013292
Li	      5.19190      3.13026     -1.09554         0.006008      0.005511      0.002781
Li	      5.21528      5.22186      1.03883        -0.015759     -0.003709     -0.006985
Li	      7.31821      5.20704     -1.05602         0.001621      0.004528     -0.008247
Ti	      5.22578      3.08119      3.12981         0.001413     -0.106393     -0.037745
Ti	      5.28751     -0.95842     -0.98301         0.090836      0.185713      0.079053
Ti	      7.32127      3.07032      1.04841        -0.028180     -0.112860      0.015704
Ni	      5.19866      1.02479      1.05611         0.046732      0.008332     -0.003786
Ni	      3.14700     -1.02264      1.05359         0.002329     -0.036826      0.006364
Ni	      7.32921      1.02040     -1.08098        -0.005290     -0.008887      0.045316
O	      5.22279      1.16502      3.13645         0.100625      0.184544      0.106182
O	      7.30073      1.16160      1.02060         0.097856      0.187383      0.096232
O	      3.05500     -3.15730      0.96187        -0.088558     -0.077170     -0.099983
O	      5.14818     -3.11186     -1.12770        -0.083769      0.018576     -0.077936
O	      5.23517     -1.06986      0.95075         0.088081     -0.091231     -0.144222
O	      7.22313     -1.07425     -1.04513        -0.142308     -0.085766      0.095568
O	      5.23375      0.93208     -1.03896        -0.076370     -0.230322     -0.080085
O	      3.18078      1.00561      1.08520        -0.112561      0.116563     -0.106423
O	      7.40761      3.13135     -0.95577         0.081118      0.087603      0.092281
O	      5.32550      3.16259      1.13870         0.099296      0.072390      0.097988
O	      5.25126     -1.17735     -3.02290        -0.097410     -0.064770      0.044587
O	      3.25415     -1.17760     -1.02728         0.053642     -0.060544     -0.096982
