# total energy = -155.37767773 eV
 
CRYSTAL
PRIMVEC
2.110306 -2.107873 4.203395 
0.001657 4.181270 4.185231 
-6.272863 -2.090693 4.182833 
PRIMCOORD
24 1
Li	     -3.08012      1.10327      5.19230        -0.003485      0.010663     -0.000692
Li	     -3.08601     -1.01619      3.08754         0.011721      0.002249     -0.001821
Li	     -1.00875      1.12097      3.16086         0.015059     -0.007271      0.001908
Li	     -1.00734      3.08610      5.16956         0.006361     -0.008140     -0.008038
Li	     -5.30979     -1.10082      5.27497        -0.029101     -0.009146      0.009477
Li	     -5.36016      0.99574      7.38022         0.012636     -0.000321      0.006843
Ti	     -0.91469     -1.00224      5.18673         0.195937      0.104142     -0.138339
Ti	     -3.16001      1.02833      9.42646        -0.109720     -0.054006     -0.010016
Ti	     -3.16781     -1.05499      7.34138        -0.117103      0.003706      0.057104
Ni	      1.05250      1.03424      5.28513        -0.001502     -0.002362     -0.036020
Ni	      1.04381     -1.09844      3.15235        -0.010381      0.029867      0.009856
Ni	     -0.98542      1.02649      7.33972        -0.023085      0.022036     -0.006551
O	     -3.11954     -3.05583      7.24198         0.101649      0.117255     -0.102063
O	     -3.08709     -0.96526      9.33360         0.076667      0.107905     -0.132545
O	     -1.14492      1.12481      9.42900        -0.078295      0.039281      0.107509
O	     -1.15617     -1.05190      7.23265        -0.084702     -0.108222     -0.033862
O	      1.03549      1.06268      7.30238         0.122959     -0.117401      0.109693
O	      0.97806     -1.06177      5.25339        -0.216520     -0.076322      0.080937
O	     -3.11575      0.93706      7.43550        -0.087649     -0.108256      0.100872
O	     -3.08066     -1.14033      5.32301         0.018120     -0.072812      0.082866
O	     -1.04685      0.92605      5.25464        -0.085022     -0.160237     -0.095442
O	     -1.04355     -1.07972      3.27695        -0.101805      0.100618      0.187480
O	     -5.08557     -1.08701      7.35650         0.199603      0.092836     -0.086918
O	     -5.08888      1.02993      9.43987         0.187657      0.093941     -0.102238
