# total energy = -92.14168167 eV
 
CRYSTAL
PRIMVEC
0.000000 2.048498 2.048447 
4.109394 -0.000003 0.000004 
-0.000324 8.573433 -8.573239 
PRIMCOORD
16 1
Li	      2.05394      2.11155     -0.06046        -0.000425      0.018987     -0.018054
Li	      4.10883      2.12708     -2.12430        -0.000264     -0.021302      0.020781
Li	      2.05396      6.53603     -4.48327         0.000231     -0.003746      0.002330
Li	      4.10852      6.27764     -6.27341         0.000861     -0.000224     -0.000038
Mn	      4.10861      0.05772     -0.05500         0.000152      0.085682     -0.083968
Mn	      2.05421      4.18116     -2.12987        -0.000454     -0.086316      0.086082
Ni	      4.10891      4.33283     -4.32966        -0.000418     -0.030622      0.032786
Ni	      2.05358      8.47980     -6.42788         0.000205      0.032803     -0.034843
O	      2.05367      6.51954     -6.51589         0.000210     -0.115451      0.113257
O	      4.10826      8.72794     -6.67652         0.000800     -0.006925      0.007142
O	      2.05424      4.08440     -4.08161        -0.000391      0.001161     -0.000022
O	      4.10883      6.29317     -4.24120        -0.000340      0.119968     -0.122105
O	      2.05414      2.23800     -2.23519         0.000154     -0.012059      0.010636
O	      4.10892      4.26611     -2.21477        -0.000500     -0.030689      0.030927
O	      2.05358      8.54616     -8.54321         0.000411      0.031127     -0.030737
O	      4.10865      2.00071      0.05041        -0.000234      0.017607     -0.014174
