# total energy = -155.68087416 eV
 
CRYSTAL
PRIMVEC
-2.082731 2.084235 4.155572 
-2.063891 -6.303880 4.190806 
4.208887 -0.026959 4.190958 
PRIMCOORD
24 1
Li	     -1.03178     -3.22161      7.31770        -0.000752     -0.020338     -0.002597
Li	      1.07650     -3.18476      5.29727         0.005167      0.002188      0.010113
Li	      1.08424     -1.11577      7.30288        -0.010844      0.004968      0.002602
Li	     -0.97595     -5.24220      5.16788         0.004771      0.000930      0.003364
Li	      3.17284     -1.02571      5.24899         0.005605      0.023562     -0.002751
Li	     -1.05284      1.07187      3.12309        -0.002848      0.000272     -0.002523
Ti	     -1.07242     -1.11452      5.21787        -0.068295     -0.043640      0.018649
Ti	      1.00138     -3.28415      9.40229        -0.116278     -0.141932      0.006448
Ti	      1.14079     -0.98622      3.13740         0.151236      0.144143     -0.012072
Ni	      1.05803      1.01726      5.21626         0.016560      0.019826      0.004355
Ni	      1.10845     -5.25782      7.32723        -0.010053     -0.022023     -0.003684
Ni	     -1.02255     -3.16311      3.14122        -0.001782     -0.013213     -0.004657
O	      1.07887     -5.19709      9.40723         0.077041      0.197062      0.096720
O	     -3.11706     -3.13739      7.18875         0.105701     -0.097797     -0.118271
O	     -1.09112     -3.06501      5.22692        -0.021063      0.132104      0.087140
O	      0.97132      1.03460      7.29153        -0.211180     -0.104002      0.081691
O	     -1.01626     -0.96854      7.18322         0.079203      0.049760     -0.111646
O	      0.98135     -1.08495      5.13145        -0.060681     -0.089880     -0.092525
O	     -0.91676     -3.18902      9.39848         0.174479      0.079565     -0.103011
O	      1.13237     -3.19321      7.43734        -0.117291      0.108481      0.114202
O	      1.19509     -1.17547      9.40055         0.135623     -0.030716     -0.088443
O	     -0.98136     -5.37996      7.33455        -0.096424     -0.206554     -0.084576
O	     -0.93473     -1.06151      3.23564         0.044551      0.079826      0.100124
O	     -1.03572      0.93332      5.29892        -0.082445     -0.072589      0.101345
