# total energy = -155.35191112 eV
 
CRYSTAL
PRIMVEC
-4.184701 -0.000062 4.182181 
0.022960 -4.210321 4.205141 
6.290834 2.061424 4.195884 
PRIMCOORD
24 1
Li	     -0.88577     -3.13795      7.37021        -0.003322      0.009333     -0.000792
Li	      1.03189     -1.17120      7.29933         0.006416     -0.002811      0.003705
Li	      1.09818     -3.13815      5.38421        -0.005800      0.006561     -0.003727
Li	      3.06319     -1.07870      5.15770        -0.004615     -0.010477     -0.003438
Li	      3.15184      0.99944      7.33411        -0.012717      0.004952     -0.004614
Li	      5.23984      1.00483      5.23970        -0.005233     -0.006231     -0.015276
Ti	     -0.98606     -0.94989      5.28150         0.092130      0.196686      0.096209
Ti	      3.15853     -1.13262      9.44789        -0.032580     -0.120872      0.035654
Ti	      5.24347     -1.14105      7.32837         0.001109     -0.144932     -0.053132
Ni	      1.05639      1.02143      5.20111        -0.006615      0.005491      0.055158
Ni	      3.11109      1.01806      3.14436         0.043245     -0.005511     -0.014942
Ni	      1.05666     -1.03320      3.14820         0.011438     -0.038564      0.010607
O	      3.14099      1.15455      5.22216         0.103412      0.181336      0.104916
O	     -1.11376     -3.12062      5.15992        -0.070160      0.022059     -0.056823
O	      1.02074      1.16581      7.30137         0.096707      0.211461      0.089249
O	     -3.23707     -3.15067      7.22342        -0.097167     -0.086286     -0.113825
O	      0.95097     -1.07118      5.23273        -0.151551     -0.087492      0.096655
O	     -1.04359     -1.07538      7.21846         0.099246     -0.091002     -0.145784
O	     -1.02228     -3.26620      9.42993        -0.081784     -0.226357     -0.084146
O	      1.16149     -1.05251      9.52094         0.101100      0.078993      0.105381
O	      1.11894     -3.22316      7.39377        -0.119274      0.127439     -0.120371
O	      3.25070     -1.08187      7.43338         0.097884      0.100687      0.082556
O	     -3.01885     -1.17919      5.24651         0.050006     -0.065030     -0.110431
O	     -1.02649     -1.17687      3.25766        -0.111876     -0.059435      0.047210
