# total energy = -155.20744160 eV
 
CRYSTAL
PRIMVEC
-2.073165 -4.171230 -2.073133 
0.010655 -2.136482 6.309164 
-6.309214 2.136432 -0.010684 
PRIMCOORD
24 1
Li	     -5.34848     -1.04143      5.25075         0.016673      0.019533      0.004487
Li	     -3.09883     -1.17990      3.20084         0.006847     -0.012521      0.005493
Li	     -5.12387     -3.14415      3.17447        -0.015120     -0.020318     -0.008765
Li	     -1.04954     -1.04096      0.95143         0.005716      0.017535      0.013943
Li	     -3.12371     -3.14364      1.17458        -0.009377     -0.020443     -0.013444
Li	     -7.38510     -0.86974     -1.08676        -0.005275      0.016864     -0.005092
Ti	     -5.13118     -3.11036     -1.12605         0.205082     -0.005835     -0.216962
Ti	     -5.24271     -1.02444      1.05684         0.009181     -0.002116      0.000146
Ti	     -7.42462     -3.11055      1.16699        -0.223310     -0.002137      0.222297
Ni	     -1.07718     -3.16089      3.21349         0.034879      0.004070     -0.041053
Ni	     -3.11791     -5.24646      3.18058        -0.004609      0.004726     -0.004525
Ni	     -3.08549     -3.16098      5.22132        -0.040516      0.005863      0.038828
O	     -7.31183     -3.12264      3.04757         0.070594     -0.082885     -0.267054
O	     -5.30270     -2.99714      0.99702        -0.021951      0.127557     -0.024552
O	     -5.23826     -0.93077      3.04762         0.059890      0.085143     -0.126882
O	     -3.25205     -3.12275     -1.01278        -0.250438     -0.083415      0.073296
O	     -3.25140     -0.93092      1.05984        -0.128573      0.086809      0.063643
O	     -1.06304     -3.12580      5.23590         0.131852     -0.093376      0.131654
O	     -5.18067      0.94890      1.11865         0.019539     -0.126810      0.018486
O	     -3.16101     -1.06202      5.37621        -0.067435      0.082258      0.270322
O	     -5.24385     -1.11770     -0.93278        -0.070981     -0.083000      0.130019
O	     -0.92297     -1.06206      3.13751         0.277889      0.082253     -0.065843
O	     -3.09993     -3.19544      3.19876        -0.129308      0.086477     -0.129821
O	     -7.23174     -1.11738      1.05473         0.128750     -0.086231     -0.068621
