# total energy = -155.68308566 eV
 
CRYSTAL
PRIMVEC
-2.079846 -4.160517 -2.079884 
0.024630 -2.119723 6.293467 
-6.292632 2.119419 -0.024729 
PRIMCOORD
24 1
Li	     -5.20955     -1.04472      5.24671        -0.007541     -0.002232     -0.005159
Li	     -3.08865     -1.04163      3.17059         0.000791     -0.004920      0.000370
Li	     -5.21936     -3.19211      3.15712         0.000521     -0.019766     -0.002227
Li	     -1.04929     -0.97646      1.05663        -0.001179      0.015576     -0.002406
Li	     -3.13929     -3.12610      1.04791         0.004335      0.001173      0.009690
Li	     -7.35600     -1.00939     -1.09811        -0.000372      0.002142     -0.001933
Ti	     -3.02156     -3.14636      5.15239         0.141898      0.006651     -0.138559
Ti	     -5.18723     -1.02686      1.00094         0.037767      0.003222     -0.035946
Ti	     -7.38996     -3.10615      1.12224        -0.118639     -0.003066      0.121835
Ni	     -1.01972     -3.14573      3.14982        -0.019670      0.000806      0.020958
Ni	     -3.12788     -5.22590      3.17863         0.023355     -0.001010     -0.025142
Ni	     -5.22255     -3.10659     -1.04429         0.000763     -0.001217     -0.000943
O	     -7.32115     -3.11184      3.04231         0.091866     -0.092439     -0.183389
O	     -5.31680     -3.00885      1.05197        -0.040511      0.099079      0.085043
O	     -5.22400     -0.92728      3.03336         0.093324      0.096830     -0.070946
O	     -3.16954     -2.99645     -1.05097         0.111324      0.102703      0.103188
O	     -3.23654     -1.03755      0.97299        -0.125223     -0.091761     -0.032337
O	     -1.10767     -3.14719      5.23447        -0.191150     -0.094689      0.096014
O	     -5.23911      0.95603      1.12951        -0.078969     -0.097126      0.038235
O	     -3.11135     -1.17592      5.27658        -0.105030     -0.104126     -0.116478
O	     -5.15894     -1.01541     -0.95026         0.026015      0.092816      0.130427
O	     -0.93726     -1.05993      3.15880         0.184320      0.090378     -0.089527
O	     -3.10408     -3.14421      3.23889        -0.096223      0.095317      0.192151
O	     -7.22043     -1.12580      1.03616         0.068227     -0.094341     -0.092919
