# total energy = -154.64812033 eV
 
CRYSTAL
PRIMVEC
-2.096928 0.000132 2.096361 
-4.203732 -6.274118 -2.106650 
6.397486 -4.268628 6.395498 
PRIMCOORD
24 1
Li	     -3.07672     -3.34421      1.11904        -0.014485      0.035678     -0.014255
Li	     -0.92897     -1.10843      1.16839        -0.024418      0.009320     -0.023769
Li	      0.98746     -5.22023      3.08450         0.023012     -0.009009      0.023692
Li	      1.03632     -2.98357      5.23212         0.015358     -0.035671      0.012312
Li	     -2.93144     -5.39461     -0.83384        -0.024146      0.003340     -0.022562
Li	     -1.21490     -7.20675      2.97984         0.023546     -0.004978      0.023471
Ti	      1.15410     -7.30001      5.34425         0.042785      0.233704      0.043236
Ti	     -1.01913     -3.16433      3.17429         0.001018      0.001568     -0.000083
Ti	      1.09900     -9.57264      3.19456        -0.043064     -0.236661     -0.043447
Ni	     -1.05444     -5.29441      1.04374         0.034752      0.038029      0.035125
Ni	      3.22838     -5.29936      5.32301        -0.001768     -0.000308     -0.001314
Ni	     -3.09185     -7.30770      1.10250        -0.034230     -0.039040     -0.035475
O	      0.99528     -3.18856      3.09301        -0.066046     -0.072882     -0.066244
O	     -1.04109     -7.34130      1.05694         0.101975     -0.108457      0.099974
O	      3.19641     -5.16993      7.38800         0.097258      0.301181      0.091080
O	      0.99926     -9.41452      5.19062        -0.087500      0.027618     -0.085787
O	     -1.02328     -5.12242      3.17113         0.080250      0.095279      0.078108
O	      3.13635     -7.40511      5.23104        -0.101854     -0.101941     -0.101032
O	     -0.93747     -3.13983      1.15981         0.065367      0.071337      0.067661
O	     -1.01573     -1.20618      3.17813        -0.079688     -0.093373     -0.077711
O	      1.16311     -5.42882      5.35393        -0.095371     -0.299297     -0.089072
O	      3.32031     -3.19372      5.41433         0.101548      0.103825      0.101425
O	     -3.10522     -5.26075      1.08943        -0.100234      0.107412     -0.101602
O	      1.25387     -7.45846      3.34817         0.085935     -0.026674      0.086267
