# total energy = -153.96875662 eV
 
CRYSTAL
PRIMVEC
-2.114996 -0.000032 2.115110 
0.018325 -8.156161 0.018362 
6.699486 -4.099684 6.699705 
PRIMCOORD
24 1
Li	      1.51289     -5.06249      3.62993        -0.001395      0.013481     -0.001493
Li	      1.13079     -7.13930      1.13259         0.001331     -0.000600      0.000896
Li	      3.65892     -3.17603      3.66102         0.000836      0.027960     -0.000962
Li	      3.42220     -9.18885      5.53989        -0.000314     -0.000186     -0.001253
Li	      5.28275     -7.04589      5.28462        -0.002700     -0.027669     -0.003127
Li	      5.31378     -5.15917      7.43069         0.002660     -0.012709      0.001123
Ti	      1.11879     -3.06170      1.12314         0.008892      0.004338      0.011381
Ti	      1.24996     -9.08577      3.36729         0.088466      0.365746      0.087665
Ti	      5.59408     -9.29399      7.71137        -0.082600     -0.363282     -0.082899
Ni	      3.43111     -7.08482      3.43311        -0.087059     -0.071324     -0.087486
Ni	      5.52863    -11.29353      5.53054         0.081400      0.068184      0.082376
Ni	      3.41324     -5.11104      5.53022        -0.002096     -0.003162     -0.001153
O	      5.52671     -5.12878      5.52870         0.080646     -0.142997      0.081115
O	      3.31691     -7.24445      5.43385         0.114758     -0.092285      0.116393
O	     -1.03932     -7.01966      1.07747         0.023452      0.404530      0.025694
O	      0.95604     -5.02418      0.95768        -0.059693      0.117567     -0.057757
O	      0.98897     -3.07505      3.10555        -0.113748      0.042760     -0.114905
O	      3.18563     -9.29227      3.18768        -0.145433     -0.038080     -0.147613
O	      3.41490     -5.09361      3.41663        -0.080871      0.145985     -0.079226
O	      1.18477     -7.25998      3.30164        -0.027843     -0.403586     -0.028362
O	      3.50927     -2.97742      5.62620        -0.107953      0.089945     -0.106362
O	      5.77391     -9.08652      5.77600         0.143800      0.036303      0.143013
O	     -0.86293     -3.04835      1.25388         0.112549     -0.039959      0.109873
O	      1.28598     -1.09883      1.28766         0.052916     -0.120958      0.053069
