# total energy = -154.69936316 eV
 
CRYSTAL
PRIMVEC
-2.096347 0.000023 2.096541 
-4.210342 -6.282618 -2.114248 
6.385075 -4.247817 6.385487 
PRIMCOORD
24 1
Li	     -3.35100     -2.96545      0.84088         0.024985     -0.020286      0.027545
Li	     -1.18883     -1.02848      0.90844         0.012302     -0.015113      0.011192
Li	      1.29219     -5.45851      3.38876        -0.026116      0.021463     -0.025575
Li	      1.18200     -3.35836      5.37440        -0.000803      0.028480     -0.001576
Li	     -3.18639     -5.01309     -1.09131         0.015571     -0.018040      0.011189
Li	     -0.87446     -7.36109      3.31934        -0.005226      0.020403     -0.005472
Ti	     -3.12419     -7.26328      1.06747         0.040617      0.234004      0.040273
Ti	     -1.02825     -3.29292      3.16433        -0.070427     -0.269847     -0.070856
Ti	      1.11015     -9.46629      3.21574         0.002781      0.003141      0.011119
Ni	     -1.05329     -5.24430      1.04200        -0.001602     -0.008639      0.000440
Ni	      3.18083     -5.31169      5.27769         0.032387      0.050638      0.034450
Ni	      1.15218     -7.33338      5.34508        -0.026726     -0.039377     -0.027516
O	      0.97613     -3.09436      3.07112        -0.076487      0.016647     -0.072650
O	     -1.14656     -7.36765      0.94797        -0.111899     -0.083014     -0.110571
O	      3.21426     -5.14329      7.40783         0.086378      0.110450      0.081008
O	      1.02801     -9.49691      5.22049        -0.076334     -0.068721     -0.078885
O	     -1.08536     -5.15796      3.10635         0.103665      0.294696      0.101639
O	      3.20244     -7.35892      5.29887         0.101780     -0.085237      0.102263
O	     -0.90125     -3.13671      1.19455         0.106326      0.071287      0.102750
O	     -0.90920     -1.16267      3.28212         0.072737     -0.027328      0.070676
O	      1.13285     -5.27942      5.32597        -0.102730      0.099652     -0.101814
O	      3.30879     -3.15549      5.40539         0.079822      0.077740      0.070353
O	     -3.11761     -5.38857      1.07379        -0.098591     -0.290945     -0.093210
O	      1.12003     -7.50543      3.21610        -0.082413     -0.102055     -0.076772
