# total energy = -154.91965253 eV
 
CRYSTAL
PRIMVEC
-2.094507 -0.000031 2.094440 
0.014387 -8.361419 0.014488 
6.373627 -4.201995 6.373475 
PRIMCOORD
24 1
Li	      1.24626     -5.30921      3.34018        -0.010986      0.006122     -0.009902
Li	      1.06572     -7.21168      1.06605         0.013655      0.022023      0.013132
Li	      3.22526     -3.28478      3.22621         0.010920      0.025894      0.009320
Li	      3.31818     -9.29160      5.41306        -0.003062     -0.013120     -0.003613
Li	      5.15540     -7.31680      5.15544         0.006396     -0.015145      0.005935
Li	      5.23113     -5.25089      7.32455        -0.008446     -0.003559     -0.007159
Ti	     -1.04390     -3.25939      3.14470        -0.045046     -0.282851     -0.045176
Ti	      5.30949    -11.53384      5.31048        -0.023849     -0.081926     -0.023264
Ti	      1.10935     -9.29784      3.20410         0.060154      0.311720      0.059744
Ni	      1.16384     -7.27143      5.35268        -0.072966     -0.065094     -0.073076
Ni	      3.17632     -5.28218      5.27049         0.043740      0.051482      0.043497
Ni	      5.29526     -9.42451      7.38941         0.042478      0.034824      0.042534
O	      3.21476     -5.09072      7.40314         0.070638      0.155651      0.071726
O	      3.17657     -7.33251      5.27095         0.119629     -0.105503      0.119816
O	      5.24803    -11.49974      7.34206        -0.066205     -0.132457     -0.066652
O	     -1.06481     -5.12048      3.12380         0.073461      0.309195      0.074695
O	      0.96334     -3.08808      3.05775        -0.064419      0.012616     -0.065171
O	      3.06260     -9.47350      3.06285        -0.140017     -0.054052     -0.139312
O	      1.13141     -5.24525      5.31994        -0.114490      0.134258     -0.113907
O	      1.06903     -7.44922      3.16367        -0.047885     -0.351493     -0.048682
O	      3.30697     -3.10993      5.40106         0.095025      0.059805      0.094668
O	      3.27108     -9.52730      7.45974        -0.119860     -0.074734     -0.120433
O	     -0.92070     -3.10033      1.17339         0.126880      0.081900      0.127987
O	      1.16933     -1.13577      1.16943         0.054254     -0.025557      0.053292
