# total energy = -155.17531703 eV
 
CRYSTAL
PRIMVEC
-2.087013 -4.180782 -2.088939 
4.269353 -6.370676 6.370950 
-4.174180 -2.091863 2.092042 
PRIMCOORD
24 1
Li	     -3.01133     -3.25433      1.22474        -0.017283      0.019254     -0.002844
Li	     -1.10525     -5.16975      5.11338         0.020954     -0.018768      0.003794
Li	     -0.92238     -1.21920      1.16552        -0.019682      0.003770     -0.018731
Li	      0.98057     -5.11269      3.08091         0.016356     -0.004269      0.018495
Li	     -1.15241     -7.25338      3.07694         0.014896     -0.018423      0.018511
Li	     -5.05025     -5.35129      1.17215        -0.015022      0.016918     -0.019089
Ti	      1.11614     -9.47721      3.21878        -0.007316      0.031822      0.011773
Ti	     -1.01442     -5.25639      1.07849        -0.001077      0.001622     -0.000052
Ti	      1.12586     -7.40367      5.31182         0.002913     -0.026161     -0.016230
Ni	     -3.10140     -7.34637      1.08018        -0.000789      0.005206      0.006500
Ni	     -0.96628     -9.48620      5.31122        -0.001360      0.002581      0.002195
Ni	     -3.10175     -5.25839      3.16899         0.000395     -0.004393     -0.009013
O	     -1.01832     -5.25397      3.07691         0.102645     -0.101570     -0.072049
O	      1.01754     -7.39527      7.29636        -0.103908     -0.092590     -0.120376
O	     -1.01787     -7.25488      1.07614         0.103336      0.074476      0.099764
O	      3.10523     -7.29021      5.30938        -0.117352      0.109249      0.091607
O	      1.10540     -9.37274      5.19747         0.102703      0.133826     -0.121674
O	     -3.18456     -7.35190      3.17414        -0.065704     -0.098289      0.101183
O	     -5.18489     -7.35061      1.17206        -0.103961      0.096635      0.076453
O	      1.13608     -7.50758      3.33315        -0.100841     -0.132499      0.126914
O	     -3.01872     -5.25267      1.07488         0.068795      0.099548     -0.097137
O	      1.22388     -5.40947      5.31032         0.113656     -0.113535     -0.094155
O	     -0.86318     -7.39621      5.41543         0.107741      0.090762      0.118199
O	     -1.01101     -3.25771      1.08099        -0.100096     -0.075171     -0.104038
