# total energy = -155.66323366 eV
 
CRYSTAL
PRIMVEC
-4.184195 -4.169849 -0.002803 
2.126900 -0.030786 6.287396 
-6.295838 2.104415 -0.038617 
PRIMCOORD
24 1
Li	     -5.20513     -1.07656      5.19120        -0.006974     -0.015139     -0.017668
Li	     -3.13697     -1.02901      3.15232         0.009211      0.012850      0.009936
Li	     -3.14179      1.02517      5.24704        -0.012057     -0.002021     -0.004560
Li	     -1.00622     -0.99384      1.05279         0.000787      0.004932      0.008244
Li	     -5.19672     -3.13115      3.09180         0.007179      0.004289      0.007218
Li	     -3.16466     -3.18795      1.03751         0.000488     -0.000927     -0.004644
Ti	     -0.93807     -0.97694      5.20782         0.142899      0.137021     -0.040337
Ti	     -5.23290     -1.03764      1.02640         0.000074      0.004083      0.005305
Ti	     -7.40261     -1.12899      3.13179        -0.138003     -0.133527      0.041667
Ni	     -3.09740     -3.13747      5.24189        -0.001840     -0.016854     -0.030577
Ni	     -3.14133      1.04734      1.02820        -0.004171      0.000249     -0.001406
Ni	     -5.24300      1.03179      3.09942         0.001231      0.015412      0.022227
O	     -7.29909     -0.96436      5.09330         0.080576      0.030174     -0.100809
O	     -5.31134     -1.03844      3.02046        -0.030617     -0.107501     -0.093874
O	     -5.32404      1.05471      5.19359        -0.199033     -0.090664      0.085303
O	     -3.23186     -1.04361      0.93376        -0.082286     -0.094737     -0.054138
O	     -3.16368      1.12994      3.11400         0.085506      0.201506      0.082229
O	     -5.25601     -3.01699      1.01225         0.097012      0.113663      0.107064
O	     -7.23566     -1.03118      1.11943         0.082986      0.089528      0.052094
O	     -3.02903     -1.06720      5.32012         0.029426      0.105222      0.091678
O	     -5.21108      0.94219      1.04103        -0.097762     -0.115282     -0.102014
O	     -1.04150     -1.14117      3.24711        -0.081028     -0.031142      0.104316
O	     -5.17682     -3.23557      5.22709        -0.083914     -0.203059     -0.082807
O	     -3.01640     -3.16041      3.14723         0.200308      0.091923     -0.084448
