# total energy = -92.02081452 eV
 
CRYSTAL
PRIMVEC
-0.000792 2.086461 2.081966 
6.069503 -0.023225 -2.061659 
-2.068605 6.284069 -4.188190 
PRIMCOORD
16 1
Li	      2.10392      2.07439      0.01122         0.022717      0.026254     -0.028329
Li	      3.94839      2.08088     -2.07877        -0.025004     -0.029797      0.031793
Li	      3.99693      4.06721     -4.08123        -0.019823     -0.006343      0.035694
Li	     -0.01334      6.37148     -2.17454         0.018891      0.009384     -0.036275
Mn	     -2.01187      6.26891     -4.16665         0.004653     -0.041359      0.002462
Mn	     -0.07387      4.19335     -0.02742        -0.004192      0.041436     -0.003037
Ni	      2.05657      4.18823     -2.09836         0.045377      0.023167     -0.048877
Ni	      1.92717      6.25053     -4.15725        -0.045930     -0.023366      0.048428
O	     -0.03998      4.04489     -1.96192        -0.116728     -0.107324      0.090209
O	     -0.00870      2.08939     -0.00341        -0.000080     -0.002384      0.002808
O	      4.02374      6.39433     -4.29393         0.120291      0.101940     -0.087416
O	      4.12190      4.14429     -2.06190         0.188548     -0.000045     -0.006902
O	     -0.13822      6.29459     -4.19401        -0.188897      0.005797      0.000985
O	      4.16232      1.99200      0.09262         0.110942      0.148588     -0.154630
O	      1.99142      6.26270     -2.08704        -0.000127     -0.002529      0.002956
O	      1.89015      2.16251     -2.15973        -0.110639     -0.143420      0.150130
