# total energy = -155.40230213 eV
 
CRYSTAL
PRIMVEC
2.098334 2.098767 -0.000011 
-2.096920 2.097327 4.142678 
8.428469 -8.430185 8.326077 
PRIMCOORD
24 1
Li	      1.05236      1.04490      1.03600         0.001477      0.003174      0.005892
Li	     -1.04507      1.04630      3.10529         0.001635     -0.003196      0.003078
Li	      3.11661     -1.01378      5.25907         0.000647     -0.003903      0.004278
Li	      1.11436     -1.11046      7.19933         0.001089     -0.000889     -0.002028
Li	      5.32023     -3.22274      9.28449        -0.004827      0.006926      0.001453
Li	      5.22510     -5.22262      7.34403        -0.003608      0.001203     -0.000273
Ti	      5.26772     -3.16419      5.20168        -0.002059      0.003799     -0.001929
Ti	      3.16006      1.03522      3.11142         0.015815     -0.018095     -0.018526
Ti	      7.37445     -7.36836      7.29022        -0.027158      0.031960      0.029247
Ni	      1.06065      1.04037      5.18818        -0.000525     -0.002304      0.010979
Ni	      7.37398     -5.27688      9.35624         0.008649     -0.006974     -0.019500
Ni	      3.16931     -3.16588      7.27348         0.001609     -0.001296     -0.008960
O	      3.06084     -0.96088      3.13379        -0.094029      0.098085      0.101232
O	      1.03598     -1.03348      5.08527         0.090414     -0.092778     -0.102942
O	      5.24500     -3.14320      7.17019         0.091520     -0.093304     -0.097904
O	      5.17289     -5.16954      5.21036        -0.090645      0.088038      0.111006
O	      7.29461     -5.19723     11.43661        -0.081680      0.075797      0.098391
O	      9.44178     -5.24691      9.24153         0.097105     -0.092760     -0.132925
O	      1.14002      0.95946      3.10730         0.080724     -0.075284     -0.101644
O	      1.09023     -1.08816      1.16035        -0.100664      0.099592      0.125561
O	      3.19194     -1.09001      7.37593        -0.089860      0.088362      0.110091
O	      3.26200     -3.25909      5.19296         0.093269     -0.092683     -0.099897
O	      7.47084     -5.37367      7.26840         0.097891     -0.102819     -0.105961
O	      7.39878     -3.20331      9.45930        -0.086788      0.089348      0.091281
