# total energy = -153.45391050 eV
 
CRYSTAL
PRIMVEC
2.068390 2.068069 0.000004 
2.125353 -2.124788 13.234905 
4.179100 -4.178611 0.022997 
PRIMCOORD
24 1
Li	      5.21491     -3.14967      1.12437        -0.002981      0.003165     -0.001394
Li	      3.26306     -1.19622      5.86092        -0.027468      0.027346     -0.017544
Li	      7.31256     -3.17684      7.74199         0.000549     -0.000979     -0.000307
Li	      5.11528     -3.04690      9.60031         0.026726     -0.027887      0.015621
Li	      3.12279     -3.12029      3.62452        -0.001406      0.000915     -0.001615
Li	      5.25712     -1.12097     11.83642         0.000369     -0.000140      0.000517
Ti	      3.12428     -1.06039      1.11298         0.018412     -0.014543     -0.004181
Ti	      3.08341      1.04954      3.46555        -0.073645      0.073826      0.546095
Ti	      7.36048     -3.22694     11.99475         0.078658     -0.076822     -0.520857
Ni	      5.15576     -3.08919      5.70543         0.112202     -0.114592     -0.094937
Ni	      3.22174     -1.15487      9.75551        -0.110135      0.115199      0.093809
Ni	      5.22313     -1.08800      7.73049        -0.000467      0.002941     -0.000296
O	      5.21503     -3.14739      7.67967         0.078801     -0.083575      0.121901
O	      3.04805     -0.98300     12.24695        -0.139590      0.138858     -0.026702
O	      5.11642     -0.98320      1.08036        -0.087357      0.083109     -0.034599
O	      3.04973     -0.98473      3.11788        -0.053169      0.051862     -0.084629
O	      5.20067     -1.06463      9.94491         0.143992     -0.151177      0.053853
O	      3.11602      1.01803      5.25806         0.045324     -0.049073     -0.610943
O	      5.32789     -3.26271      3.21384         0.137067     -0.134277      0.022742
O	      3.16277     -1.09646      7.78110        -0.078797      0.080981     -0.118321
O	      7.32886     -3.19507     10.20289        -0.049068      0.048708      0.596204
O	      5.32615     -3.26061     12.34273         0.051826     -0.050517      0.083747
O	      5.24539     -1.11105      5.51600        -0.144345      0.148682     -0.055174
O	      3.20263      0.93028      1.14513         0.074500     -0.072011      0.037012
