# total energy = -153.13040274 eV
 
CRYSTAL
PRIMVEC
2.093414 2.092772 -0.000063 
-8.465148 8.462279 8.857045 
2.113534 -2.113015 4.423044 
PRIMCOORD
24 1
Li	     -3.32671      5.41908     10.11807        -0.004691      0.005229      0.013661
Li	     -7.69223      7.68978      8.14025         0.005184     -0.004956      0.030401
Li	     -0.93080      3.02408      5.37514         0.006397     -0.006612     -0.012199
Li	     -3.17533      3.17511      7.74786        -0.000097      0.000041     -0.000201
Li	      1.04780      1.04663      1.10811         0.000298     -0.000951     -0.001077
Li	     -0.77046      0.77227      2.93249        -0.011691      0.011020     -0.031839
Ti	     -3.18484      5.27755      5.53488        -0.004205      0.003717      0.010041
Ti	     -5.33171      5.33115      7.85341        -0.169811      0.169098      0.468883
Ti	     -1.01881      1.01884      7.64050         0.173455     -0.173756     -0.480692
Ni	      1.16876      0.92579      5.33014        -0.129603      0.129287      0.138679
Ni	     -5.42527      7.51655     10.16533         0.130339     -0.130248     -0.140857
Ni	      1.05783     -1.05652      3.31964         0.002727     -0.002114     -0.001200
O	     -5.32327      7.41470     12.11898         0.078749     -0.079488      0.130256
O	      1.00834     -1.00703      5.50460         0.148293     -0.147993      0.074581
O	     -3.23763      5.33019      7.53940        -0.004439      0.005440     -0.132455
O	     -5.23727      5.23685      9.64952         0.022932     -0.022350     -0.541694
O	     -1.24580      3.33809      3.46832        -0.194759      0.194177     -0.014565
O	     -3.28595      3.28509      5.52285        -0.059800      0.059888     -0.009711
O	     -5.12463      7.21734      7.60142         0.192034     -0.190708      0.013250
O	     -7.35806      7.35642      9.99098        -0.148826      0.149162     -0.075554
O	     -1.01943      3.11252      7.95446         0.009400     -0.009696      0.135577
O	     -5.17731      5.17707      5.54721         0.057992     -0.058707      0.013141
O	      1.06733      1.02721      3.37671        -0.081769      0.082921     -0.136429
O	     -1.11355      1.11344      5.84420        -0.018110      0.017599      0.550003
