# total energy = -155.31386144 eV
 
CRYSTAL
PRIMVEC
-4.187610 -4.186568 -0.000285 
2.118458 -0.024215 6.255696 
-6.308012 2.119872 -0.023776 
PRIMCOORD
24 1
Li	     -5.24500     -1.13845      5.23655        -0.003404      0.012563     -0.008386
Li	     -3.12182     -1.02869      3.12317         0.001841      0.008240      0.003220
Li	     -3.04925      1.06200      5.23109        -0.012428      0.002383     -0.002142
Li	     -1.06662     -1.02005      0.98494         0.012298      0.002521     -0.013090
Li	     -5.24675     -3.15263      3.19724        -0.006709      0.002063     -0.022514
Li	     -3.14346     -3.13941      0.97409        -0.010853      0.003529      0.005664
Ti	     -5.24217      1.06306      3.15071         0.026906      0.021178      0.129971
Ti	     -5.18762     -1.09472      0.91687         0.097738     -0.106614     -0.174823
Ti	     -7.35761     -1.02509      3.14484        -0.055934      0.021075      0.091089
Ni	     -3.16273     -3.15595      5.21527         0.043528      0.013808     -0.007057
Ni	     -3.15157      1.06078      0.98504         0.010755     -0.005652      0.036607
Ni	     -1.03052     -1.01926      5.21854        -0.010115     -0.048721      0.008513
O	     -7.36043     -1.00588      5.06304         0.088992     -0.084742     -0.172471
O	     -5.32792     -0.94976      3.06490        -0.066290      0.072803     -0.009946
O	     -5.26621      1.07263      5.06068         0.100009     -0.106849     -0.188233
O	     -3.26194     -1.02395      1.05340        -0.162080     -0.097735      0.089588
O	     -3.24940      1.15394      3.10272        -0.101269      0.085833      0.081359
O	     -5.25459     -3.01760      1.04781         0.095499      0.165844      0.097556
O	     -7.23754     -1.03868      1.13377         0.049522      0.083866      0.067079
O	     -3.12549     -1.06224      5.27969        -0.085005      0.082485      0.212413
O	     -5.24035      0.95574      1.13305        -0.086240     -0.042534      0.055995
O	     -0.94905     -1.15036      3.11617         0.071942     -0.089496     -0.097476
O	     -5.18006     -3.18589      5.21759        -0.120750      0.103912     -0.110205
O	     -3.02698     -3.24707      3.09335         0.122049     -0.099759     -0.072711
