# total energy = -154.77708385 eV
 
CRYSTAL
PRIMVEC
2.088790 2.088553 0.000019 
2.141498 -2.141122 12.660886 
4.228199 -4.227705 0.018104 
PRIMCOORD
24 1
Li	      5.28421     -3.19502      0.95869        -0.001646      0.002446     -0.001444
Li	      3.29352     -1.20141      5.48278        -0.020910      0.020070      0.011065
Li	      5.19802     -5.19479      7.37488         0.012157     -0.013400      0.009830
Li	      5.31006     -3.21681      9.34164         0.002077     -0.001311      0.001523
Li	      3.16752     -3.16473      3.34604        -0.001343      0.001985      0.009263
Li	      5.21913     -1.04197     11.53721         0.010679     -0.009132     -0.015239
Ti	      3.17747     -1.08802      0.93736         0.030569     -0.030050     -0.304104
Ti	      3.18162     -1.09372      9.42377         0.009357     -0.008768     -0.248683
Ti	      1.04949     -1.04770      3.31465        -0.036941      0.036892      0.428538
Ni	      5.22129     -3.12976      5.37857         0.072769     -0.074630     -0.075575
Ni	      3.23360     -3.23120      7.36898        -0.050557      0.051141      0.036723
Ni	      5.35117     -5.34960     11.58934        -0.050981      0.051615      0.023759
O	      5.26130     -3.17006      7.38628         0.111249     -0.112551      0.128367
O	      3.15049     -1.06094     11.52800         0.120689     -0.120137     -0.023400
O	      3.07457     -3.07310      1.09806        -0.099093      0.099220      0.052604
O	      3.05928     -0.96868      3.05801        -0.056129      0.056030     -0.034241
O	      3.08901     -3.08824      9.53632        -0.092609      0.093971      0.077580
O	      1.05899     -1.05675      5.13165         0.060776     -0.061299     -0.480286
O	      5.40187     -3.31071      3.10287         0.111472     -0.112122     -0.025266
O	      3.19408     -1.10372      7.54958        -0.069588      0.068725      0.273096
O	      5.39641     -5.39487      9.54418         0.074033     -0.072586     -0.110214
O	      5.33063     -3.24009     11.74649        -0.076446      0.076052      0.364023
O	      3.20999     -3.20700      5.28820        -0.126084      0.125065     -0.107849
O	      1.17326     -1.17161      1.08662         0.066499     -0.067228      0.009929
