# total energy = -154.71549638 eV
 
CRYSTAL
PRIMVEC
2.095392 2.095493 0.000009 
-8.434353 8.434872 8.468111 
2.119490 -2.119583 4.255785 
PRIMCOORD
24 1
Li	     -3.27036      5.36884      9.77184        -0.000592     -0.001660      0.011095
Li	     -7.41424      7.41582      7.44723        -0.004281      0.004120      0.012238
Li	     -0.97329      3.07150      5.22116         0.010398     -0.008870     -0.013493
Li	     -3.19908      3.20194      7.48710        -0.006158      0.006091      0.002242
Li	      0.92946      1.16777      1.11597         0.000269     -0.000285      0.005952
Li	     -0.82459      0.82609      2.95821        -0.012762      0.013107     -0.028241
Ti	     -3.19115      5.29021      5.40735        -0.034634      0.034093      0.278162
Ti	     -5.29645      7.39238      9.57228        -0.099256      0.098602      0.220678
Ti	     -1.02172      1.02569      7.32110         0.125691     -0.127709     -0.409517
Ni	      1.13701      0.96028      5.20067        -0.084246      0.085677      0.081244
Ni	     -5.30127      5.30369      7.46578         0.056401     -0.055260     -0.025919
Ni	      1.03904     -1.03755      3.21152         0.043740     -0.043651     -0.045580
O	     -5.27037      7.36787     11.46015         0.069352     -0.068678     -0.262336
O	      1.03495     -1.03324      5.27660         0.107747     -0.107743      0.099939
O	     -3.16665      5.26482      7.27178         0.073618     -0.075122     -0.336248
O	     -5.32415      5.32644      9.51584        -0.031950      0.033647      0.104880
O	     -1.21301      3.31197      3.25843        -0.171094      0.169289      0.011323
O	     -3.28093      3.28392      5.25940        -0.081619      0.080926     -0.018569
O	     -5.21529      7.31298      7.51363        -0.117586      0.118827      0.048299
O	     -7.25277      7.25430      9.47930         0.147865     -0.145763     -0.056934
O	     -0.97600      3.07415      7.54392         0.044677     -0.042920      0.043893
O	     -5.17280      5.17561      5.27788         0.129542     -0.128812     -0.058325
O	      1.09390      1.00301      3.19583        -0.109258      0.109000     -0.120617
O	     -1.07288      1.07615      5.49299        -0.055862      0.053096      0.455834
