# total energy = -155.23640453 eV
 
CRYSTAL
PRIMVEC
2.097625 4.121634 2.097905 
-6.357422 -0.000199 6.358588 
2.129707 -4.154077 2.130201 
PRIMCOORD
24 1
Li	     -3.02178      1.02837      5.12164        -0.004001      0.000758      0.003146
Li	     -3.14529      3.08662      7.34345         0.026531      0.001419     -0.024534
Li	     -1.23558      1.02794      3.33731         0.002941      0.001485     -0.006133
Li	     -1.07971      3.08888      5.27891        -0.000025     -0.001272     -0.001239
Li	      1.05095      1.02810      1.05126         0.000726     -0.000136     -0.001228
Li	      0.98625      3.08583      3.21332        -0.026181      0.004050      0.024981
Ti	     -3.19104      1.01093      9.52456         0.001094      0.002084      0.002626
Ti	      0.95768     -1.04820      3.27418        -0.245902     -0.001515      0.239506
Ti	     -3.08386     -1.04781      7.31484         0.241195     -0.001221     -0.245205
Ni	      0.99141      1.01174      5.33817         0.042397      0.000582     -0.041219
Ni	     -1.01975      1.01191      7.34900        -0.040933     -0.000079      0.041783
Ni	     -1.06318     -1.04885      5.29436         0.000890      0.000462      0.001802
O	      1.06982     -3.02509      3.04848         0.060953      0.071975     -0.129694
O	      1.07365     -1.07539      5.15224         0.071238     -0.087488     -0.275041
O	     -3.30847     -3.02504      7.42661        -0.130004      0.071211      0.063862
O	     -3.25621     -0.96612      9.45936        -0.022013      0.083600     -0.022525
O	     -1.10047     -3.08033      5.25709         0.128906     -0.126599      0.129232
O	     -1.20562     -1.07529      7.43126        -0.274820     -0.086410      0.072022
O	     -3.19497      0.92707      7.54187        -0.062776     -0.070351      0.125807
O	     -5.22576     -1.13227      7.48988         0.022480     -0.084935      0.022323
O	     -1.02589      0.98266      5.33189        -0.129036      0.125974     -0.129197
O	     -3.20044     -1.02223      5.43677        -0.066802      0.082344      0.277246
O	      1.18380      0.92714      3.16289         0.126736     -0.071055     -0.062549
O	     -0.92048     -1.02271      3.15722         0.276408      0.085118     -0.065771
