# total energy = -155.68339123 eV
 
CRYSTAL
PRIMVEC
2.085048 4.152300 2.085027 
-6.280840 0.000048 6.280698 
2.120404 -4.187891 2.120418 
PRIMCOORD
24 1
Li	     -3.13587      1.03290      5.23219        -0.004334      0.000467      0.002344
Li	     -3.08303      3.10978      7.26418         0.005028     -0.001891     -0.003944
Li	     -1.12192      1.03372      3.21689        -0.017917     -0.001499      0.018403
Li	     -1.05378      3.10957      5.23449         0.009846      0.000413     -0.008823
Li	     -5.22004      1.03484      7.31468        -0.007675     -0.002202      0.010872
Li	      1.01872      3.10949      3.16149        -0.001168     -0.000558     -0.000478
Ti	     -3.08561      1.01560      9.38649         0.033862     -0.004392     -0.041239
Ti	     -0.94249      1.01494      7.24300         0.146194      0.002720     -0.137303
Ti	      0.98574     -1.06064      3.22922        -0.125798      0.006474      0.127942
Ni	      1.06295      1.01561      5.23722        -0.026497     -0.000731      0.027664
Ni	     -1.05320     -1.06083      5.26942         0.024231     -0.002518     -0.027529
Ni	     -3.12507     -1.06130      7.34122         0.006230      0.003071     -0.006888
O	      1.07347     -3.04801      3.05831         0.101417      0.092853     -0.064522
O	      1.04812     -1.06333      5.14696         0.097207     -0.094630     -0.194540
O	     -3.21977     -3.15388      7.28097        -0.118317     -0.095836     -0.006707
O	      3.05270     -0.96211      3.15663        -0.037405      0.102319      0.085993
O	     -1.11085     -3.14390      5.24333        -0.182329     -0.093190      0.083132
O	     -1.07752     -0.94708      7.33036         0.112610      0.111505      0.117129
O	     -3.06441      1.03136      7.43524         0.006083      0.100674      0.116492
O	      1.05846     -1.16019      1.16210        -0.082984     -0.099728      0.038004
O	     -1.02729      1.02243      5.32718        -0.086131      0.091524      0.175631
O	     -3.11390     -1.17514      5.29456        -0.117087     -0.110068     -0.116854
O	      1.15638      0.92668      3.14078         0.069293     -0.097101     -0.095929
O	     -0.93204     -1.05769      3.16760         0.195643      0.092323     -0.098852
