# total energy = -103.53361330 eV
 
CRYSTAL
PRIMVEC
4.190285 0.000011 4.188305 
-4.201534 4.150296 0.011312 
-4.201531 -4.150315 0.011289 
PRIMCOORD
16 1
Li	     -3.15549     -3.11125      1.05743         0.004843      0.000467      0.002061
Li	     -1.05555      1.03781      3.15012        -0.000731      0.002422      0.006653
Li	      1.04207     -1.03800      3.15143         0.000901      0.000112     -0.002287
Li	     -1.04954     -1.03583      1.05280        -0.001200     -0.002505     -0.001896
Ti	     -3.15608     -1.03618      3.15670         0.002125     -0.000102     -0.002586
Ti	     -5.25622     -1.03507      1.06764        -0.003779      0.002122     -0.000725
Ni	     -3.15286      1.03898      1.05892        -0.000073      0.001920     -0.000711
Ni	     -1.05804     -3.11136      3.15335        -0.000522      0.000860      0.000832
O	     -0.97157      3.09892      3.06783         0.085066     -0.084773     -0.090330
O	     -3.23949     -1.05118      1.14444        -0.085033     -0.083922      0.089026
O	     -5.21928      0.91985      1.09823        -0.096904     -0.108349     -0.094779
O	     -3.19306      0.91967      3.12531         0.094846     -0.106807      0.094262
O	     -1.14462     -1.02089      3.23874        -0.085283      0.085054      0.086471
O	     -3.06647      3.12978      0.97341         0.086924      0.082412     -0.085086
O	     -1.08594      1.15868      1.01999         0.093313      0.105438      0.091780
O	      1.07664      1.15863      3.18097        -0.094493      0.105649     -0.092686
