# total energy = -205.81599211 eV
 
CRYSTAL
PRIMVEC
4.196021 -0.010018 4.204374 
-4.205983 4.205419 -0.000064 
-8.457575 -4.250985 4.279075 
PRIMCOORD
32 1
Li	     -7.40688     -3.19997      5.32343        -0.000326      0.001259     -0.000468
Li	     -3.18282      1.02431      5.28833        -0.000554     -0.000176     -0.001468
Li	     -9.25305      1.17234      3.05297        -0.003226      0.000782      0.008789
Li	     -1.30893      0.88629      3.31752         0.004128     -0.000085     -0.009418
Li	     -7.24038     -0.84009      3.05242        -0.001061     -0.003355      0.007960
Li	     -3.32091      2.89793      3.31701         0.000632      0.004037     -0.009253
Li	     -5.06626     -0.85869      5.07502         0.005076      0.005083      0.019278
Li	     -5.49554      2.91791      1.29430        -0.003525     -0.004269     -0.020505
Ti	     -5.31398     -3.20361      7.41964        -0.008737     -0.005126     -0.017600
Ti	     -7.41208     -1.09633      7.43009        -0.003200      0.015207      0.008179
Ti	     -1.07980     -1.07844      5.28690         0.000811     -0.001585      0.001345
Ti	     -9.50498     -1.10251      5.32310         0.014843     -0.007800      0.003870
Ni	     -3.23012      0.97701      1.12081         0.061345      0.059590     -0.098555
Ni	     -7.33126      1.08151      5.24773        -0.061331     -0.063954      0.100259
Ni	     -5.28060      1.02954      3.18460         0.000783     -0.002545      0.000529
Ni	     -3.17768     -1.07330      3.18470        -0.000848      0.000052     -0.000326
O	     -5.27690     -1.06946      3.08545        -0.100731     -0.101072     -0.066192
O	     -0.98376      3.22235      3.06684         0.083564      0.081848     -0.072236
O	     -7.54464     -1.09580      5.46123        -0.117575     -0.070118      0.105922
O	      0.92882     -1.06137      5.27546        -0.052982     -0.110489     -0.101023
O	     -5.30228     -3.33674      5.46152        -0.076435     -0.108420      0.118621
O	     -1.06237      0.92982      5.27544        -0.113768     -0.055213     -0.101749
O	     -3.34885     -3.34818      7.42784        -0.111838     -0.121341      0.064162
O	     -3.21640      0.99058      3.09621         0.099923      0.102046      0.141707
O	     -5.38166     -1.17459      7.50472        -0.083858     -0.083913      0.070828
O	     -1.07871     -1.07734      3.28378         0.103159      0.103146      0.066873
O	     -3.08821     -1.09579      5.29819         0.052666      0.113376      0.101298
O	     -3.01716      3.15348      0.90552         0.104560      0.070654     -0.111828
O	     -5.30288      1.11864      5.29825         0.112750      0.055910      0.102029
O	     -1.05306      1.18969      0.90605         0.075672      0.118063     -0.105930
O	     -7.34490      1.06805      3.27254        -0.100362     -0.101869     -0.143619
O	      1.19001      1.18991      3.14431         0.120446      0.110278     -0.061479
