# total energy = -207.16485906 eV
 
CRYSTAL
PRIMVEC
4.172694 -0.005229 4.200371 
-4.177769 4.178581 -0.000144 
-8.350786 -4.173988 4.210726 
PRIMCOORD
32 1
Li	     -7.30682     -3.13249      5.25975        -0.000216      0.002189     -0.000133
Li	     -3.13494      1.04264      5.25488         0.001000      0.001359     -0.000467
Li	     -9.41904      1.04392      3.10528        -0.009370      0.001838      0.011064
Li	     -1.01762      1.04496      3.20636         0.004597     -0.003606     -0.008375
Li	     -7.30349     -1.01632      3.21440        -0.005673      0.005647     -0.012785
Li	     -3.14052      3.10656      3.09875         0.005467     -0.006211      0.012256
Li	     -5.30815     -0.95360      5.25715        -0.012602      0.010209      0.000283
Li	     -5.13148      3.04351      1.04794         0.011579     -0.010951      0.002815
Ti	     -5.22128     -3.13250      7.35995         0.004580      0.007955     -0.008791
Ti	     -3.12544     -1.04353      3.15441         0.003668      0.005548      0.000916
Ti	     -1.04625     -1.04608      5.26171         0.000064      0.001412      0.002002
Ti	     -9.39669     -1.04372      5.26284         0.001764      0.007218     -0.005161
Ni	     -3.12002      1.03385      1.05248        -0.001289     -0.002529      0.003376
Ni	     -7.32090      1.05652      5.25802        -0.005703      0.000377      0.004159
Ni	     -5.22021      1.04621      3.15563         0.001502     -0.001735     -0.001908
Ni	     -7.31017     -1.04521      7.36050         0.005110      0.005367     -0.000361
O	     -5.14647     -1.04839      3.06935         0.068274     -0.102600     -0.084056
O	     -1.05403      3.20340      3.06384        -0.098845      0.068519     -0.080700
O	     -7.42966     -1.00421      5.28547        -0.108879     -0.117648     -0.100719
O	      0.95673     -1.06545      5.35066        -0.084285     -0.105629      0.090153
O	     -5.23764     -3.21857      5.35536        -0.099781     -0.089570      0.093238
O	     -1.00736      0.92120      5.28001        -0.117968     -0.118465     -0.098548
O	     -3.26476     -3.15796      7.32352        -0.123398      0.109635      0.109814
O	     -3.15502      0.91305      3.11807         0.108463     -0.127388      0.111584
O	     -5.21560     -1.11906      7.44728         0.100368     -0.075075      0.078483
O	     -1.11630     -1.03812      3.24156        -0.081390      0.098730      0.079023
O	     -3.04678     -1.02721      5.16112         0.085940      0.104186     -0.086607
O	     -3.01272      3.09428      1.02468         0.112649      0.118954      0.098994
O	     -5.26054      1.16601      5.23058         0.118612      0.110345      0.102982
O	     -1.02649      1.12999      0.95524         0.104127      0.087034     -0.087143
O	     -7.28631      1.17842      3.19328        -0.110469      0.119766     -0.113017
O	      1.17292      1.06272      3.18780         0.122105     -0.104881     -0.112370
