# total energy = -207.08404290 eV
 
CRYSTAL
PRIMVEC
4.195266 -0.006408 4.180082 
-4.210069 4.196180 0.008518 
-8.400326 -4.167901 4.196394 
PRIMCOORD
32 1
Li	     -7.35308     -3.13318      5.24826        -0.004792     -0.010136      0.014737
Li	     -3.14216      1.06351      5.14509         0.005417      0.006897     -0.006757
Li	     -9.44128      1.11583      3.13304         0.013234     -0.001194     -0.002758
Li	     -1.18589      0.99531      3.16417         0.003840      0.008763      0.003027
Li	     -7.27960     -1.00290      3.11766         0.005430      0.016451      0.001355
Li	     -3.21980      3.03633      3.18373         0.005894      0.001637      0.002286
Li	     -5.21846     -0.99872      5.13880        -0.007537      0.000565     -0.002073
Li	     -5.36470      3.11330      1.17460        -0.010132     -0.005519      0.008609
Ti	     -7.33201      1.15792      5.17969         0.064382      0.167581     -0.191248
Ti	     -7.37542     -1.07149      7.35165        -0.033958     -0.161791      0.069082
Ti	     -0.94293     -0.95071      5.24676         0.156200      0.155370     -0.040833
Ti	     -9.46726     -1.07741      5.23399        -0.069845     -0.167005     -0.027730
Ni	     -3.16280      1.05355      1.08438         0.017473      0.003034     -0.061912
Ni	     -5.22976      1.05984      3.15673        -0.036322      0.009339     -0.010307
Ni	     -5.24315     -3.12409      7.32353        -0.025962     -0.005752      0.029056
Ni	     -3.15672     -1.00385      3.15029         0.011165     -0.045918     -0.005912
O	     -5.24152     -1.02669      3.04196        -0.107595     -0.106178     -0.079222
O	     -0.95534      3.15513      3.03951         0.110604     -0.105404     -0.090802
O	     -7.43158     -0.98086      5.31907        -0.053924      0.019018      0.055810
O	      0.96366     -1.04528      5.23320        -0.196442     -0.091060     -0.095830
O	     -5.13591     -3.22832      5.26059         0.062062     -0.041963     -0.113029
O	     -1.06331      0.95988      5.24512        -0.076804     -0.182864     -0.103742
O	     -3.17796     -3.25214      7.23344         0.115849     -0.053366     -0.031613
O	     -3.20598      1.01926      3.09057         0.117828      0.120248      0.122222
O	     -5.35557     -1.02785      7.43666        -0.069415      0.107976      0.104996
O	     -1.08933     -1.06725      3.28187         0.103651      0.103367      0.102213
O	     -3.11205     -1.13026      5.26722         0.007581     -0.210941      0.093036
O	     -3.05056      3.18427      0.96434         0.112687      0.096982     -0.104595
O	     -5.37881      1.13088      5.25921        -0.139188      0.018270      0.104825
O	     -1.06145      1.18226      1.01354         0.102276      0.208188      0.093611
O	     -7.34381      1.06170      3.29126        -0.089787     -0.070354      0.250296
O	      1.09755      1.19547      3.15449        -0.093869      0.215759     -0.086799
