# total energy = -205.15389049 eV
 
CRYSTAL
PRIMVEC
4.225077 0.000084 4.223459 
-4.224906 4.224196 -0.000087 
-8.523313 -4.297762 4.296508 
PRIMCOORD
32 1
Li	     -7.45131     -3.22688      5.33769         0.002564      0.003332     -0.003579
Li	     -3.07659      1.14718      5.18813         0.011192      0.010220     -0.010537
Li	     -9.40028      1.25508      3.06268         0.001775     -0.017321     -0.004293
Li	     -1.30253      0.78115      3.41413         0.001915      0.014660     -0.003866
Li	     -7.19330     -0.95124      3.06320        -0.018636      0.003543     -0.003759
Li	     -3.44278      2.92101      3.41401         0.015086      0.002356     -0.002248
Li	     -5.17511     -0.95056      5.08105         0.001269      0.005128      0.016428
Li	     -5.52764      2.92052      1.32985         0.002009      0.004323     -0.014859
Ti	     -7.31559      1.13437      5.20125         0.276203      0.269370     -0.269287
Ti	     -5.35662     -3.23573      7.46848        -0.077755      0.005968      0.080224
Ti	     -7.46035     -1.13400      7.46739         0.006351     -0.079863      0.078134
Ti	     -9.58291     -1.13277      5.34624        -0.080622     -0.078468     -0.006139
Ni	     -3.27708      0.94666      1.16471         0.108515      0.110782     -0.110730
Ni	     -5.26634      1.02000      3.15372        -0.065363      0.005908      0.067045
Ni	     -3.20385     -1.04210      3.15361         0.006036     -0.065672      0.065210
Ni	     -1.04135     -1.04226      5.31525        -0.064856     -0.067210     -0.005982
O	     -5.28133     -1.05718      3.16890        -0.096699     -0.095784      0.097267
O	     -0.94729      3.27607      3.06033         0.091827      0.088461     -0.088249
O	     -7.58633     -1.06594      5.47210        -0.064592      0.005116      0.068110
O	      1.01629     -1.04427      5.31981         0.110635     -0.127204     -0.112581
O	     -5.29042     -3.36127      5.47203         0.008389     -0.068961      0.069098
O	     -1.04307      1.01507      5.31982        -0.127911      0.110086     -0.109964
O	     -3.36156     -3.36109      7.40101        -0.066110     -0.067103     -0.005399
O	     -3.20873      1.01510      3.15564         0.110649      0.113077      0.127087
O	     -5.43222     -1.20777      7.54245        -0.080523     -0.077585      0.077337
O	     -1.15569     -1.15650      3.26764         0.087773      0.093572     -0.094033
O	     -3.25315     -1.25532      5.36451        -0.034665     -0.342448      0.037199
O	     -3.00128      3.21165      0.88999         0.136814      0.043223     -0.136500
O	     -5.48090      0.97126      5.36436        -0.344406     -0.038161      0.038242
O	     -1.01214      1.22251      0.89026         0.042600      0.136879     -0.138252
O	     -7.47801      0.97121      3.36672        -0.035719     -0.037645      0.342285
O	      1.22368      1.22252      3.12462         0.136254      0.137419     -0.043407
