# total energy = -207.20787169 eV
 
CRYSTAL
PRIMVEC
4.196810 -0.000733 4.190211 
-4.197717 4.195864 0.000172 
-8.381966 -4.182245 4.179258 
PRIMCOORD
32 1
Li	     -7.33599     -3.13975      5.24325        -0.006773     -0.005979      0.011258
Li	     -3.12903      1.06999      5.14099         0.007503      0.006024     -0.016456
Li	     -9.39855      1.13281      3.10689         0.009028      0.002080      0.004059
Li	     -1.20622      0.99166      3.13632         0.003054     -0.000510     -0.004733
Li	     -7.26009     -1.00349      3.10729         0.002453      0.012474      0.002891
Li	     -3.20863      2.99496      3.13439         0.000016      0.002529     -0.002439
Li	     -5.21330     -1.01599      5.15757        -0.000947      0.002671      0.004681
Li	     -5.31396      3.08246      1.15847        -0.008223     -0.006977     -0.007732
Ti	     -7.30103      1.09372      5.11646         0.057080      0.057937     -0.269895
Ti	     -5.24415     -3.13351      7.38285        -0.061314     -0.009235      0.163813
Ti	     -7.33544     -1.04766      7.38214        -0.012326     -0.060632      0.165806
Ti	     -0.95510     -0.95334      5.23854         0.145141      0.144048     -0.044354
Ni	     -3.15542      1.04234      1.07794         0.014458      0.014553     -0.050474
Ni	     -5.20629      1.05093      3.14249        -0.044562      0.011848     -0.010542
Ni	     -3.14778     -1.00683      3.14277         0.011133     -0.046046     -0.013299
Ni	     -9.41486     -1.02006      5.22525        -0.023223     -0.022719      0.014735
O	     -5.22983     -1.03142      3.03262        -0.110008     -0.106942     -0.080910
O	     -0.94440      3.24991      3.12499         0.105940      0.103514      0.116216
O	     -7.33893     -0.92040      5.34347         0.107002      0.067702      0.049827
O	      0.95831     -1.04885      5.23637        -0.185779     -0.087210     -0.103034
O	     -5.11716     -3.14093      5.34326         0.066774      0.110634      0.055062
O	     -1.05048      0.95997      5.23636        -0.083848     -0.189002     -0.103513
O	     -3.22203     -3.22090      7.30119        -0.053667     -0.055061     -0.014638
O	     -3.18500      1.01462      3.08336         0.113858      0.114833      0.126442
O	     -5.32944     -1.13193      7.33190        -0.079045     -0.080979     -0.102132
O	     -1.07933     -1.07658      3.26897         0.101808      0.096809      0.099522
O	     -3.07027     -1.15584      5.25694         0.014713     -0.146246      0.089926
O	     -3.10800      3.13878      0.91951        -0.089370      0.098027     -0.202782
O	     -5.35478      1.12727      5.25668        -0.140709      0.012642      0.090255
O	     -1.05726      1.08698      0.92009         0.098956     -0.087454     -0.205658
O	     -7.34438      1.05075      3.25236        -0.077213     -0.075743      0.313677
O	      1.16266      1.15984      3.10917         0.118089      0.122409     -0.075579
