# total energy = -206.83843274 eV
 
CRYSTAL
PRIMVEC
4.192261 -0.000022 4.191493 
-4.199892 4.207082 0.007616 
-8.385421 -4.185173 4.192415 
PRIMCOORD
32 1
Li	     -7.33723     -3.13679      5.24213        -0.001016      0.000337     -0.000693
Li	     -3.14734      1.05810      5.24820        -0.001342      0.000184     -0.002224
Li	     -9.39868      1.20285      3.11161         0.006657     -0.021177     -0.011764
Li	     -1.08881      0.91599      3.18628        -0.008829      0.023211      0.012938
Li	     -7.17826     -0.99633      3.09550         0.002467      0.018090     -0.010534
Li	     -3.30987      3.11308      3.20515        -0.001321     -0.015817      0.009183
Li	     -5.18876     -0.99525      5.08482         0.008411      0.018542     -0.002974
Li	     -5.30013      3.11357      1.21357        -0.007029     -0.017737      0.002918
Ti	     -3.22602      0.93746      1.13203        -0.174434     -0.240425      0.171551
Ti	     -7.26233      1.18244      5.16651         0.177140      0.237071     -0.171766
Ti	     -7.34131     -1.03262      7.34124        -0.000200     -0.001732     -0.000877
Ti	     -9.43689     -1.03249      5.24481         0.000826     -0.001950      0.000761
Ni	     -5.24398      1.05966      3.14963        -0.000221      0.000013      0.000403
Ni	     -5.24139     -3.13626      7.33689         0.000810      0.000294      0.001056
Ni	     -3.14415     -1.04357      3.14567         0.000150     -0.000119      0.000879
Ni	     -1.04800     -1.04378      5.24140         0.000285     -0.000650      0.000830
O	     -5.18011     -0.98429      3.08564        -0.108897     -0.111684      0.110953
O	     -0.93706      3.17103      3.03372         0.115215     -0.092093     -0.115047
O	     -7.42595     -1.02234      5.32950        -0.081929      0.014832      0.083821
O	      1.07425     -0.93617      5.21534         0.067905      0.259332     -0.069495
O	     -5.15597     -3.27209      5.27116         0.019273     -0.112683     -0.101358
O	     -0.92544      1.07508      5.23376         0.224638      0.073383     -0.083637
O	     -3.17558     -3.27214      7.25195         0.102661     -0.113644     -0.018273
O	     -3.13627      1.07520      3.02343         0.079275      0.074157     -0.225852
O	     -5.35995     -1.05125      7.45510        -0.113435      0.092498      0.117180
O	     -1.10820     -1.10344      3.20560         0.108269      0.112285     -0.110448
O	     -3.17024     -1.15108      5.26775        -0.069522     -0.257941      0.067306
O	     -3.06308      3.14243      0.96799         0.080716     -0.014915     -0.082385
O	     -5.37081      1.04428      5.25664        -0.224180     -0.073111      0.082967
O	     -1.13303      1.18514      1.01850        -0.019738      0.112083      0.102389
O	     -7.35172      1.04460      3.27482        -0.080952     -0.074378      0.224598
O	      1.07844      1.18504      3.22976        -0.101652      0.113744      0.017593
