# total energy = -207.40020315 eV
 
CRYSTAL
PRIMVEC
4.180247 0.000019 4.180092 
-4.190058 4.193263 0.009820 
-8.357572 -4.161067 4.177152 
PRIMCOORD
32 1
Li	     -7.31096     -3.11283      5.22512        -0.003231      0.000022      0.000016
Li	     -3.14139      1.06319      5.22933        -0.000156      0.000557      0.001300
Li	     -9.42563      1.07032      3.13153         0.012726      0.000592      0.010110
Li	     -1.03678      1.05462      3.15227        -0.011370     -0.001062     -0.013056
Li	     -7.33609     -1.04478      3.14427        -0.002496     -0.003701      0.010575
Li	     -3.12741      3.17119      3.13721         0.002006     -0.000859     -0.008021
Li	     -5.22116     -1.00649      5.21056         0.007527     -0.001688      0.000370
Li	     -5.24090      3.13222      1.07311        -0.006009     -0.001770     -0.000561
Ti	     -3.06771      1.05309      1.12221         0.179897      0.004026      0.167143
Ti	     -7.39457      1.06930      5.16120        -0.180082     -0.002465     -0.165185
Ti	     -7.31995     -1.01795      7.32220         0.003610      0.000762     -0.001440
Ti	     -1.04741     -1.03417      5.22655        -0.000399     -0.001049      0.003351
Ni	     -5.23154      1.06206      3.14106        -0.002069     -0.001356      0.003163
Ni	     -5.22443     -3.11513      7.31635        -0.000150      0.002589     -0.002432
Ni	     -3.13647     -1.03470      3.13661        -0.002676     -0.001136      0.000479
Ni	     -9.40977     -1.01871      5.23107        -0.000614      0.001978     -0.001899
O	     -5.18507     -1.00048      3.01500        -0.124117     -0.106840     -0.119055
O	     -0.93054      3.17666      3.10230         0.114718     -0.108022      0.124702
O	     -7.30342     -0.93297      5.30465         0.090316      0.083681      0.080340
O	      0.96970     -0.94923      5.21060        -0.080816      0.083109     -0.089793
O	     -5.10851     -3.12307      5.24367         0.208482      0.092447     -0.107171
O	     -0.97744      0.95528      5.23198         0.043314     -0.091074     -0.096256
O	     -3.13508     -3.22168      7.24215         0.098743     -0.094089     -0.043488
O	     -3.15939      1.05380      3.02561         0.111275      0.092325     -0.201032
O	     -5.35155     -1.05279      7.36261        -0.114662      0.110164     -0.124395
O	     -1.08796     -1.06909      3.25829         0.124515      0.111042      0.116605
O	     -3.06286     -1.11958      5.24310         0.084033     -0.084611      0.088231
O	     -3.15900      3.05751      0.98006        -0.089354     -0.084145     -0.080780
O	     -5.30591      1.16889      5.23085        -0.042969      0.090731      0.097787
O	     -1.16410      1.05411      1.03147        -0.208003     -0.093640      0.105432
O	     -7.30409      1.06997      3.25801        -0.109573     -0.090084      0.202323
O	      1.04367      1.15282      3.21305        -0.102417      0.093564      0.042638
