# total energy = -206.81199554 eV
 
CRYSTAL
PRIMVEC
4.180122 -0.000009 4.180406 
0.015366 8.416511 -0.015387 
-4.189992 -0.015224 4.190276 
PRIMCOORD
32 1
Li	     -3.14271      1.21132      5.23110        -0.005574     -0.003887      0.002830
Li	      1.04589      5.07891      5.22194         0.005285      0.003829     -0.003131
Li	     -0.97970      1.11945      3.06788         0.013413     -0.004039     -0.015155
Li	      3.07307      5.18560      3.19550        -0.013909      0.006297      0.013078
Li	      1.04129      3.14508      7.31575        -0.000441      0.000468      0.000010
Li	      1.05464      7.36078      3.12154        -0.000100     -0.000170     -0.002357
Li	     -1.04903      3.14528      5.22631        -0.001083     -0.000105     -0.000715
Li	      3.14229      7.36095      5.21387        -0.001853     -0.000393     -0.000083
Ti	      3.05958      1.17683      3.20691        -0.115443      0.230190      0.127189
Ti	     -0.96742      5.12865      3.05468         0.118885     -0.232241     -0.125205
Ti	     -3.13084      7.35362      3.13263        -0.000855      0.002422      0.007570
Ti	     -1.03649      7.35301      5.21852         0.005496     -0.003332      0.003947
Ni	      1.03678      1.10800      5.23139        -0.010701     -0.054377      0.012507
Ni	     -3.13344      5.18202      5.22155         0.009086      0.056529     -0.012019
Ni	      1.04648      3.15276      3.13147         0.000419      0.000656     -0.000316
Ni	      3.13681      3.15247      5.22142         0.000303      0.000863      0.001114
O	     -1.06133      3.25580      3.14924        -0.065590      0.271508      0.064435
O	     -0.96074      7.35676      7.22870         0.077293      0.040749     -0.071734
O	      0.99171      3.20721      1.09628         0.102701     -0.146758     -0.105716
O	      0.94561      7.37885      5.32212        -0.114716     -0.066832      0.112347
O	     -1.04520      0.89807      5.33818        -0.106800     -0.103344      0.042718
O	     -1.02950      5.29204      1.14465        -0.087248      0.065982      0.206572
O	      0.93032      0.89795      7.31315        -0.041949     -0.109071      0.106110
O	      0.94233      5.29173      3.11704        -0.199240      0.067853      0.091830
O	     -1.03544      3.03442      7.30371         0.064144     -0.271404     -0.066850
O	     -1.12050      7.34951      3.20888        -0.075091     -0.038265      0.071741
O	      1.10173      3.09823      5.16652        -0.106434      0.145208      0.103109
O	     -3.02703      7.32809      5.11495         0.107305      0.064319     -0.119108
O	      3.12238      1.01376      5.11724         0.090352     -0.069630     -0.203073
O	     -1.05213      5.39227      5.11543         0.109341      0.104454     -0.045994
O	      1.15018      1.01336      3.14538         0.199410     -0.066391     -0.089634
O	     -3.02685      5.39184      3.13936         0.043593      0.108913     -0.106016
