# total energy = -207.42391321 eV
 
CRYSTAL
PRIMVEC
4.179860 0.000051 4.179798 
0.016383 8.368725 -0.016324 
-4.182299 -0.016271 4.182237 
PRIMCOORD
32 1
Li	     -3.14999      1.02885      5.20999         0.015726     -0.001364      0.012645
Li	      1.06960      5.22180      5.22841        -0.010689     -0.000460     -0.009206
Li	     -0.99822      1.03585      3.17946         0.019429      0.000220      0.019657
Li	     -1.07984      5.21088      7.26081        -0.020728      0.001807     -0.019659
Li	     -3.12906      3.12304      3.13139        -0.000360      0.003050      0.001441
Li	      1.06082      7.31633      3.12134        -0.001061      0.003467     -0.000391
Li	     -1.03772      3.12615      5.21933        -0.002103     -0.002636     -0.000605
Li	      3.14861      7.31964      5.21076         0.001300     -0.003843      0.000513
Ti	     -1.11210      1.03039      7.24661        -0.153141     -0.009126     -0.165347
Ti	     -0.96777      5.22238      3.19252         0.147258     -0.001412      0.143600
Ti	      1.05635      7.30886      7.30174         0.001355     -0.001470      0.001908
Ti	     -1.03972      3.13231      1.03999         0.005462      0.012989      0.010450
Ni	      1.06599      1.03655      5.24254        -0.031772     -0.000022     -0.024797
Ni	     -3.14621      5.21274      5.19669         0.023361      0.001892      0.026860
Ni	      1.05112      3.13296      3.12821        -0.004270      0.000050     -0.000913
Ni	     -1.03214      7.30914      5.21177        -0.000461      0.002041     -0.000718
O	     -1.05088      3.21650      3.05671        -0.092544      0.076678     -0.082535
O	     -0.95978      7.39319      7.31342         0.077625      0.077652      0.094381
O	      0.92548      3.16861      1.07383        -0.115961     -0.115441     -0.114650
O	      1.02231      7.34492      5.33655         0.118878     -0.114667      0.114720
O	     -1.01656      1.03578      5.33592        -0.108376      0.085054      0.188148
O	     -1.04205      5.11846      1.11663        -0.108930     -0.095039      0.041568
O	      0.96418      0.92595      7.32070        -0.046788     -0.087414      0.109283
O	      0.94227      5.22801      3.09708        -0.175451      0.084517      0.108625
O	      3.15276      3.04959      3.20111         0.094482     -0.077414      0.074965
O	     -1.10461      7.22549      3.11008        -0.076312     -0.075797     -0.094680
O	      1.17564      3.09718      5.18274         0.115788      0.116080      0.118569
O	     -3.08645      7.27351      5.08651        -0.118076      0.115427     -0.113548
O	      3.14355      1.14766      5.14168         0.111946      0.086938     -0.047264
O	     -1.06377      5.21411      5.10268         0.109443     -0.086519     -0.173320
O	      1.15976      1.03796      3.16001         0.181328     -0.085645     -0.107992
O	     -3.04510      5.32382      3.11884         0.043641      0.090408     -0.111706
