# total energy = -206.28167467 eV
 
CRYSTAL
PRIMVEC
4.196594 0.000011 4.196574 
0.000087 8.436031 -0.000027 
-4.196742 -0.000078 4.196723 
PRIMCOORD
32 1
Li	      0.92619      1.15161      1.17082         0.004545      0.016067     -0.004717
Li	      1.05186      5.13766      5.24125        -0.003269     -0.002016      0.006332
Li	     -0.92965      1.15291      3.02667        -0.003574      0.015448      0.003684
Li	      3.14141      5.13812      3.15331         0.005917     -0.001092     -0.004580
Li	      0.92589      3.06668      7.22255         0.004623     -0.018372      0.003457
Li	      1.05508      7.51543      3.15329        -0.007057      0.000455     -0.005710
Li	     -0.92928      3.06563      5.36730        -0.002824     -0.017451     -0.004167
Li	      3.14301      7.51626      5.24434         0.005038      0.001657      0.002891
Ti	      1.03913      5.13536      1.05917        -0.048844     -0.357016      0.035496
Ti	     -1.04067      5.13553      3.13795         0.035350     -0.359310     -0.048856
Ti	      1.03751      7.51713      7.33474        -0.038474      0.366014     -0.037906
Ti	     -1.04045      7.51749      5.25481         0.038157      0.360699      0.037981
Ni	      1.09908      1.11614      5.19427        -0.064295     -0.057378      0.071611
Ni	      3.09443      1.11626      3.19888         0.073135     -0.058010     -0.065520
Ni	      1.09913      3.10123      3.19882        -0.064389      0.056909     -0.063947
Ni	      3.09465      3.10116      5.19435         0.066006      0.058648      0.066532
O	     -1.03651      3.29839      3.13343        -0.064126      0.407291      0.065596
O	     -0.93965      7.32723      7.23308         0.104966     -0.049313     -0.108681
O	      1.03391      3.29848      1.06313         0.065580      0.404626     -0.063096
O	      0.93715      7.32708      5.35681        -0.111600     -0.047909      0.105945
O	     -1.03645      0.91823      5.25976        -0.065045     -0.401503     -0.064211
O	     -0.93940      5.32580      1.15996         0.111517      0.045889      0.111494
O	      1.03352      0.91826      7.33018         0.063883     -0.406735      0.063350
O	      0.93713      5.32566      3.03665        -0.107349      0.048572     -0.107392
O	      3.12369      3.15829      3.17006         0.121035      0.130330     -0.125238
O	     -1.15273      7.30767      3.24933        -0.060957     -0.030444      0.067252
O	      1.07028      3.15823      5.22326        -0.124017      0.129248      0.122651
O	     -3.04664      7.30788      5.14363         0.066219     -0.030989     -0.062012
O	      3.12357      1.05925      5.22336         0.123286     -0.130816      0.124016
O	     -1.15239      5.34498      5.14369        -0.064264      0.028134     -0.063735
O	      1.07058      1.05916      3.17029        -0.126734     -0.130259     -0.126271
O	     -3.04679      5.34491      3.24964         0.067560      0.028627      0.067754
