# total energy = -92.18751006 eV
 
CRYSTAL
PRIMVEC
-0.000163 2.075996 2.076657 
8.177491 -4.241710 4.242029 
1.996358 2.096095 -4.173540 
PRIMCOORD
16 1
Li	      2.05646      2.02766      0.05125         0.014905     -0.000118      0.000727
Li	      2.01433      0.02779      2.04981        -0.015360     -0.001115     -0.003041
Li	      6.15168     -0.10950      2.18831         0.006104     -0.002024      0.003646
Li	      6.09636     -2.07689      4.15491        -0.006001      0.001856     -0.003309
Mn	      0.04715      0.00991     -0.01014        -0.037610      0.003569      0.000339
Mn	      4.02379     -0.03049      0.03461         0.038831     -0.003530      0.000159
Ni	      4.16540     -2.14834      2.15430         0.002502      0.046436     -0.050373
Ni	      8.08290     -2.11386      2.11233        -0.002632     -0.046356      0.050398
O	      2.01112      2.21818     -2.22012         0.100984      0.031798     -0.030889
O	      5.92849      0.01988     -0.01516        -0.098142     -0.111647      0.112662
O	      6.12415     -2.13118      2.13327         0.000312     -0.000147      0.001069
O	      8.31618     -0.11003      2.18493         0.096867      0.111731     -0.114026
O	      8.21883     -2.24887      4.32528         0.017662     -0.084875      0.092662
O	      2.03549     -0.01028      0.01228         0.000346     -0.000074      0.000746
O	      4.05601      1.93329      0.14772        -0.101064     -0.032315      0.030900
O	      4.02942      0.06262      2.01794        -0.017703      0.086811     -0.091670
