# total energy = -207.01524527 eV
 
CRYSTAL
PRIMVEC
4.199754 0.000018 4.199879 
0.000065 8.373839 -0.000035 
-4.186529 -0.000047 4.186658 
PRIMCOORD
32 1
Li	      1.15047      1.04355      1.15203        -0.006379      0.001783     -0.006104
Li	      1.05308      5.23253      5.23702        -0.009019     -0.000163     -0.006872
Li	     -0.94182      1.04492      3.24476        -0.006328     -0.000327     -0.005523
Li	     -1.04086      5.23182      7.32864        -0.008099     -0.000583     -0.006569
Li	      1.03525      3.05258      7.31618         0.006277     -0.023492      0.005244
Li	      1.09572      7.46510      3.18844         0.009515     -0.016196      0.012156
Li	     -1.00037      2.99918      5.28251         0.012856      0.016025      0.010824
Li	      3.12772      7.41089      5.22164         0.007175      0.025396      0.008260
Ti	      1.04796      5.23329      1.05658         0.019726      0.002750      0.022638
Ti	     -1.04339      5.23199      3.15157         0.015772      0.000054      0.028175
Ti	      0.98532      7.46748      7.26519        -0.102161      0.269481     -0.102649
Ti	      3.07850      2.99776      5.17237        -0.103577     -0.276017     -0.104425
Ni	      1.01342      1.04566      5.20051         0.050551      0.000929      0.050788
Ni	      3.10673      1.04560      3.10717         0.050465     -0.000199      0.051546
Ni	      1.04830      3.09021      3.14242        -0.003663      0.025861     -0.003226
Ni	     -1.04488      7.37475      5.23543        -0.003426     -0.027081     -0.003437
O	     -1.03988      3.27270      3.03055        -0.103169      0.125925     -0.036195
O	     -0.92807      7.29047      7.32199         0.169490     -0.076822      0.093615
O	      0.93640      3.27276      1.05410        -0.037448      0.124381     -0.103173
O	      1.04160      7.29065      5.35199         0.093842     -0.077696      0.169527
O	     -1.00436      1.01081      5.27615        -0.121034      0.128856     -0.121930
O	     -0.95819      5.19282      1.13547         0.067518     -0.008957      0.061328
O	      1.05579      0.95067      7.33616         0.070341     -0.311707      0.070812
O	      0.94608      5.25605      3.04046        -0.105683      0.066352     -0.109783
O	      3.13482      3.17437      3.25898         0.093580      0.076555      0.170009
O	     -1.15708      7.19256      3.14709        -0.036083     -0.126350     -0.104143
O	      1.16531      3.17450      5.22907         0.169956      0.076627      0.092755
O	     -3.13312      7.19286      5.12368        -0.103958     -0.126621     -0.035067
O	      3.14921      1.14052      5.24290         0.071163      0.314540      0.071801
O	     -1.14725      5.20929      5.13398        -0.104173     -0.066140     -0.111738
O	      1.08899      1.08002      3.18289        -0.120423     -0.124404     -0.121747
O	     -3.05146      5.27270      3.22889         0.066397      0.007240      0.063106
