# total energy = -207.73173069 eV
 
CRYSTAL
PRIMVEC
4.188984 0.000130 4.189052 
0.000046 8.337673 0.000202 
-4.188945 0.000079 4.189012 
PRIMCOORD
32 1
Li	      1.03653      1.03947      1.04024         0.012274      0.000113      0.011096
Li	      0.99411      5.20924      5.18879        -0.017580     -0.002050     -0.018266
Li	     -0.99358      1.04027      3.19498         0.016400     -0.000733      0.019644
Li	      3.15155      5.20836      3.15316        -0.011125      0.000301     -0.009326
Li	     -3.15148      3.12339      3.15435         0.011313      0.001413     -0.011248
Li	      0.99792      7.29257      3.19818        -0.020358      0.001640      0.016213
Li	     -0.99766      3.12442      5.18600         0.019644      0.001240     -0.016486
Li	     -1.03753      7.29344      1.04017        -0.009708      0.000604      0.011126
Ti	      1.10638      5.20972      1.10922         0.133073      0.004329      0.125319
Ti	      3.08148      1.04140      3.08437        -0.132529     -0.002345     -0.129880
Ti	     -3.08217      7.29487      3.08444         0.127569     -0.004710     -0.117771
Ti	     -1.10714      3.12545      1.10942        -0.132424     -0.002295      0.129504
Ni	      1.06312      1.04112      5.25475        -0.018320      0.003335     -0.018883
Ni	     -1.06382      5.20974      3.12826         0.016627      0.000934      0.017683
Ni	      1.06243      3.12580      3.12862        -0.015251     -0.003406      0.015569
Ni	     -1.06314      7.29412      5.25507         0.011615      0.001442     -0.018068
O	     -1.01383      3.12413      3.03124        -0.114476     -0.092847     -0.169334
O	     -0.96631      7.39859      7.34542         0.048274      0.091086      0.092813
O	      0.96561      3.22899      1.03835        -0.050433      0.093763     -0.095744
O	      1.01291      7.29349      5.35233         0.117665     -0.096133      0.162704
O	     -1.01354      1.04189      5.35154        -0.115262      0.094339      0.173048
O	     -0.96602      5.10567      1.03822         0.049196     -0.089182     -0.094740
O	      0.96518      0.93749      7.34451        -0.048322     -0.091060      0.095986
O	      1.01257      5.21059      3.03090         0.116040      0.096234     -0.166701
O	      3.15264      3.02171      3.22574         0.095338     -0.092939      0.048231
O	     -1.16077      7.29498      3.17888        -0.167562      0.095480     -0.118637
O	      1.15994      3.12638      5.20464         0.172753      0.094176      0.115556
O	     -3.15320      7.19051      5.15733        -0.096470     -0.094325     -0.048317
O	      3.15330      1.14511      5.15720         0.093178      0.089891     -0.048550
O	     -1.16033      5.20868      5.20447        -0.174190     -0.093993      0.116828
O	      1.15944      1.04008      3.17863         0.174446     -0.094985     -0.117361
O	     -3.15416      5.31395      3.22576        -0.091395      0.090683      0.047992
