# total energy = -98.75269804 eV
 
CRYSTAL
PRIMVEC
2.017072 4.002474 2.005442 
3.946902 -1.974841 -1.971820 
0.003487 3.977448 -3.964247 
PRIMCOORD
16 1
Li	      1.92489      3.81141      1.87340        -0.146949      0.219136      0.605479
Li	      3.79101      3.80323      0.02975         0.729919      0.152154      0.557417
Li	      3.74064     -0.00055     -3.71937         0.114066     -0.393349     -0.353048
Li	      3.79098      5.69553     -1.85161         0.134622      0.929531      0.052386
Ti	      1.89259      3.72563     -1.80134        -3.509794      2.756394     -0.966822
Ti	      3.77415      3.86433     -3.81079         2.277925      0.540171     -3.474976
Ni	      1.89206      1.89225      0.02121        -2.112732     -1.956038      2.603086
Ni	      3.77130      1.91829     -1.86810         2.041801     -0.974634     -0.072698
O	      1.89392      1.99384     -1.85050        -2.739845     -5.072177     -2.006209
O	      3.68916      3.80466     -1.94051         4.196926      2.534026      1.749145
O	      1.97812      3.78468     -3.67213        -2.939277     -0.081879     -3.348208
O	      3.76986      1.81751      0.00391         2.245801      0.259726      2.722938
O	      3.75794      0.03682     -1.78462         0.154777     -2.780338     -0.661478
O	      1.90608      3.77397     -0.06168         0.209373      2.137344      5.135060
O	      3.85964      1.99148     -3.74464        -0.805427     -2.057002     -2.722457
O	      1.80776      5.59818     -1.86784         0.148814      3.786934      0.180386
