# total energy = -99.82680892 eV
 
CRYSTAL
PRIMVEC
2.027689 4.023539 2.015997 
3.967675 -1.985235 -1.982198 
0.003505 3.998382 -3.985112 
PRIMCOORD
16 1
Li	      1.94521      3.85163      1.89317        -0.130472      0.198079      0.519941
Li	      3.83102      3.84336      0.03007         0.628764      0.118135      0.475742
Li	      3.78012     -0.00056     -3.75862         0.098778     -0.337546     -0.299427
Li	      3.83099      5.75564     -1.87115         0.114699      0.794908      0.042740
Ti	      1.91256      3.76496     -1.82036        -2.970619      2.389629     -0.817162
Ti	      3.81398      3.90512     -3.85101         1.908565      0.394281     -3.002964
Ni	      1.91203      1.91222      0.02143        -1.793871     -1.651268      2.231151
Ni	      3.81110      1.93853     -1.88782         1.732969     -0.874447     -0.055802
O	      1.91391      2.01489     -1.87004        -2.364524     -4.305530     -1.716907
O	      3.72809      3.84481     -1.96099         3.599528      2.209549      1.480101
O	      1.99900      3.82462     -3.71089        -2.504566     -0.087202     -2.853104
O	      3.80965      1.83669      0.00395         1.929478      0.235424      2.362509
O	      3.79760      0.03721     -1.80346         0.124231     -2.418005     -0.594924
O	      1.92620      3.81380     -0.06233         0.226775      1.838289      4.400136
O	      3.90038      2.01249     -3.78416        -0.737386     -1.748645     -2.359384
O	      1.82684      5.65726     -1.88755         0.137650      3.244349      0.187353
