# total energy = -100.74750001 eV
 
CRYSTAL
PRIMVEC
2.038305 4.044605 2.026552 
3.988448 -1.995629 -1.992576 
0.003523 4.019316 -4.005976 
PRIMCOORD
16 1
Li	      1.96563      3.89207      1.91305        -0.109597      0.184289      0.442483
Li	      3.87124      3.88372      0.03038         0.536819      0.090504      0.404487
Li	      3.81980     -0.00057     -3.79808         0.084213     -0.288187     -0.250112
Li	      3.87121      5.81606     -1.89080         0.095649      0.678870      0.032447
Ti	      1.93264      3.80448     -1.83946        -2.482323      2.043457     -0.678279
Ti	      3.85402      3.94612     -3.89144         1.577560      0.277349     -2.568490
Ni	      1.93210      1.93230      0.02166        -1.505223     -1.372792      1.887325
Ni	      3.85111      1.95888     -1.90764         1.446352     -0.778269     -0.044556
O	      1.93400      2.03604     -1.88967        -2.023553     -3.606326     -1.450058
O	      3.76723      3.88518     -1.98158         3.046511      1.902763      1.230832
O	      2.01998      3.86478     -3.74984        -2.106392     -0.096267     -2.396082
O	      3.84964      1.85597      0.00399         1.643975      0.207745      2.027695
O	      3.83747      0.03761     -1.82239         0.095714     -2.081048     -0.518507
O	      1.94642      3.85384     -0.06299         0.234558      1.564932      3.716569
O	      3.94132      2.03362     -3.82389        -0.660974     -1.469008     -2.023844
O	      1.84601      5.71666     -1.90737         0.126712      2.741987      0.188089
