# total energy = -102.70558537 eV
 
CRYSTAL
PRIMVEC
2.070153 4.107802 2.058217 
4.050768 -2.026811 -2.023710 
0.003579 4.082118 -4.068570 
PRIMCOORD
16 1
Li	      2.02753      4.01465      1.97330        -0.060740      0.127010      0.247027
Li	      3.99316      4.00603      0.03133         0.293359      0.034102      0.219945
Li	      3.94011     -0.00058     -3.91770         0.048043     -0.166300     -0.130402
Li	      3.99312      5.99924     -1.95034         0.050360      0.371744      0.008261
Ti	      1.99352      3.92430     -1.89740        -1.285638      1.116711     -0.318962
Ti	      3.97540      4.07040     -4.01400         0.791490      0.080168     -1.457312
Ni	      1.99295      1.99316      0.02234        -0.796977     -0.703593      1.019300
Ni	      3.97240      2.02058     -1.96772         0.749950     -0.479590     -0.023944
O	      1.99491      2.10016     -1.94918        -1.138522     -1.845802     -0.796836
O	      3.88588      4.00754     -2.04399         1.625116      1.103800      0.624386
O	      2.08360      3.98649     -3.86794        -1.100651     -0.106050     -1.256695
O	      3.97088      1.91442      0.00411         0.924877      0.091651      1.163854
O	      3.95833      0.03879     -1.87979         0.017088     -1.202375     -0.276939
O	      2.00772      3.97521     -0.06497         0.221107      0.875345      1.963680
O	      4.06546      2.09767     -3.94432        -0.404346     -0.767130     -1.158402
O	      1.90415      5.89670     -1.96744         0.065486      1.470310      0.173040
