# total energy = -103.12267162 eV
 
CRYSTAL
PRIMVEC
2.080769 4.128867 2.068772 
4.071541 -2.037205 -2.034088 
0.003597 4.103051 -4.089434 
PRIMCOORD
16 1
Li	      2.04839      4.05593      1.99358        -0.047319      0.105827      0.189137
Li	      4.03422      4.04723      0.03166         0.223892      0.023059      0.168628
Li	      3.98062     -0.00059     -3.95799         0.035143     -0.131690     -0.095288
Li	      4.03418      6.06093     -1.97040         0.039421      0.285570      0.005068
Ti	      2.01401      3.96465     -1.91691        -0.965653      0.841941     -0.219678
Ti	      4.01628      4.11225     -4.05527         0.588706      0.057661     -1.142260
Ni	      2.01345      2.01365      0.02257        -0.602680     -0.525801      0.776985
Ni	      4.01324      2.04136     -1.98795         0.561594     -0.382070     -0.017563
O	      2.01542      2.12176     -1.96922        -0.891265     -1.355455     -0.623677
O	      3.92584      4.04874     -2.06500         1.224082      0.868456      0.458499
O	      2.10503      4.02749     -3.90772        -0.819636     -0.107009     -0.941446
O	      4.01172      1.93411      0.00416         0.725341      0.043226      0.915990
O	      3.99903      0.03919     -1.89912        -0.003605     -0.950969     -0.187544
O	      2.02837      4.01609     -0.06564         0.207897      0.685675      1.464896
O	      4.10726      2.11924     -3.98488        -0.312328     -0.573226     -0.916815
O	      1.92373      5.95733     -1.98767         0.036409      1.114806      0.165068
