# total energy = -103.43675124 eV
 
CRYSTAL
PRIMVEC
2.091386 4.149933 2.079327 
4.092314 -2.047599 -2.044466 
0.003615 4.123985 -4.110299 
PRIMCOORD
16 1
Li	      2.06934      4.09742      2.01398        -0.033208      0.083725      0.135784
Li	      4.07549      4.08863      0.03198         0.158492      0.018795      0.120722
Li	      4.02134     -0.00059     -3.99847         0.024516     -0.098147     -0.065672
Li	      4.07545      6.12293     -1.99055         0.026859      0.204330      0.001379
Ti	      2.03462      4.00520     -1.93652        -0.680713      0.583467     -0.128171
Ti	      4.05736      4.15432     -4.09676         0.412847      0.051633     -0.849257
Ni	      2.03405      2.03425      0.02280        -0.427505     -0.369620      0.555779
Ni	      4.05430      2.06224     -2.00829         0.396749     -0.285808     -0.012315
O	      2.03604      2.14346     -1.98937        -0.663255     -0.911661     -0.464450
O	      3.96600      4.09016     -2.08613         0.855770      0.656285      0.308845
O	      2.12656      4.06869     -3.94770        -0.562772     -0.107302     -0.658232
O	      4.05276      1.95389      0.00420         0.539870     -0.007601      0.684949
O	      4.03995      0.03959     -1.91854        -0.025374     -0.716840     -0.103466
O	      2.04912      4.05717     -0.06631         0.185696      0.515815      1.007387
O	      4.14928      2.14092     -4.02565        -0.212853     -0.398503     -0.691014
O	      1.94341      6.01827     -2.00800         0.004881      0.781433      0.157732
