# total energy = -103.78693975 eV
 
CRYSTAL
PRIMVEC
2.112618 4.192064 2.100437 
4.133860 -2.068387 -2.065222 
0.003652 4.165853 -4.152028 
PRIMCOORD
16 1
Li	      2.11157      4.18104      2.05508        -0.009916      0.036845      0.034379
Li	      4.15866      4.17207      0.03263         0.045515      0.004754      0.033751
Li	      4.10341     -0.00061     -4.08008         0.002053     -0.040665     -0.009372
Li	      4.15862      6.24788     -2.03118         0.007757      0.060389     -0.002997
Ti	      2.07614      4.08694     -1.97604        -0.205968      0.107177      0.029406
Ti	      4.14017      4.23910     -4.18037         0.128940      0.082739     -0.324828
Ni	      2.07556      2.07577      0.02327        -0.125681     -0.106337      0.173390
Ni	      4.13704      2.10432     -2.04927         0.117192     -0.088659     -0.000323
O	      2.07759      2.18721     -2.02997        -0.266270     -0.144130     -0.202209
O	      4.04693      4.17363     -2.12870         0.198713      0.268994      0.056485
O	      2.16996      4.15172     -4.02826        -0.108607     -0.103806     -0.166885
O	      4.13546      1.99377      0.00429         0.228105     -0.125594      0.275220
O	      4.12239      0.04040     -1.95770        -0.068123     -0.288326      0.078679
O	      2.09094      4.13997     -0.06766         0.125339      0.216042      0.189476
O	      4.23395      2.18461     -4.10780        -0.004679     -0.087719     -0.288134
O	      1.98307      6.14109     -2.04898        -0.064370      0.208295      0.123961
