# total energy = -90.09239145 eV
 
CRYSTAL
PRIMVEC
0.000004 2.093402 -2.093402 
0.000000 2.093408 2.093408 
16.767841 0.000175 -0.000007 
PRIMCOORD
16 1
Li	      2.28440      2.09246     -0.00194         0.038304      0.000078      0.000973
Li	      4.00188      2.09214      2.09178        -0.030596     -0.000304     -0.000528
Li	     10.66125      2.09307     -0.00072         0.056623     -0.000119     -0.000523
Li	     12.38365      2.09366      2.09252        -0.047819     -0.000680     -0.001038
Mn	      0.15525      2.09282      2.09150         0.186008     -0.000131     -0.000394
Mn	      6.13274      2.09219     -0.00109        -0.203926     -0.000341     -0.000631
Ni	      8.44949      4.18586     -0.00083        -0.098094     -0.000283     -0.000540
Ni	     14.60883      2.09330     -0.00164        -0.054197      0.000025      0.000754
O	     14.94484      2.09325      2.09169         0.026862      0.000128     -0.000008
O	      0.02323      2.09285     -0.00191         0.079606      0.000019      0.000701
O	     10.36873      2.09293      2.09259         0.252142      0.000149      0.000155
O	     12.67347      2.09353     -0.00104        -0.112541     -0.000246      0.000020
O	      6.26105      4.18554     -0.00108        -0.041943     -0.000054     -0.000376
O	      8.11036      2.09235     -0.00088        -0.035380      0.000437     -0.000249
O	      1.98504      2.09255      2.09133        -0.129526      0.000275      0.001039
O	      4.30280      2.09206     -0.00138         0.114477      0.001047      0.000644
