# total energy = -103.56611256 eV
 
CRYSTAL
PRIMVEC
2.155083 4.276327 2.142657 
4.216953 -2.109962 -2.106734 
0.003725 4.249589 -4.235485 
PRIMCOORD
16 1
Li	      0.04223      0.07448     -0.00413         0.029347     -0.076332     -0.164264
Li	      2.17244      0.06515     -2.10870        -0.131170      0.011202     -0.096047
Li	      0.05307      2.10933     -2.13901        -0.029950      0.065881      0.081820
Li	      2.17240      2.22525     -4.25631        -0.025368     -0.158163      0.000432
Ti	      2.16044      4.25289     -2.05628         0.432230     -0.692709      0.253095
Ti	      4.30828      4.41123     -4.35011        -0.209801      0.265958      0.539288
Ni	      2.15984      2.16005      0.02421         0.310169      0.231464     -0.418114
Ni	      4.30502      2.18977     -2.13248        -0.264463      0.281066      0.009318
O	      2.16195      2.27602     -2.11239         0.346866      0.989313      0.159805
O	      4.21126      4.34310     -2.21513        -0.807761     -0.348756     -0.298033
O	      2.25807      4.32030     -4.19182         0.583487     -0.084331      0.561068
O	      4.30338      2.07472      0.00446        -0.258844     -0.386292     -0.391619
O	      4.28978      0.04204     -2.03719        -0.139936      0.437521      0.445778
O	      2.17584      4.30808     -0.07041        -0.039834     -0.234653     -1.085838
O	      4.40587      2.27331     -4.27460         0.428988      0.392121      0.373507
O	      2.06360      6.39045     -2.13218        -0.223959     -0.693290      0.029804
