# total energy = -103.35327294 eV
 
CRYSTAL
PRIMVEC
2.165699 4.297393 2.153212 
4.237726 -2.120356 -2.117112 
0.003744 4.270523 -4.256350 
PRIMCOORD
16 1
Li	      0.05331      0.09639      0.00644         0.033760     -0.110147     -0.216299
Li	      2.20457      0.08696     -2.11892        -0.164921      0.016275     -0.121626
Li	      0.07447      2.11972     -2.17057        -0.035515      0.093761      0.102732
Li	      2.20453      2.26840     -4.28774        -0.032697     -0.199136      0.002570
Ti	      2.18178      4.29490     -2.07659         0.537403     -0.864354      0.290977
Ti	      4.35083      4.45480     -4.39307        -0.257540      0.329078      0.726761
Ni	      2.18117      2.18139      0.02445         0.389659      0.280454     -0.535486
Ni	      4.34754      2.21140     -2.15355        -0.330648      0.368154      0.012471
O	      2.18331      2.29850     -2.13326         0.465959      1.203947      0.221270
O	      4.25285      4.38600     -2.23701        -1.007758     -0.474519     -0.361816
O	      2.28037      4.36297     -4.23322         0.719028     -0.074392      0.696910
O	      4.34589      2.09521      0.00451        -0.348090     -0.454059     -0.536839
O	      4.33215      0.04246     -2.05731        -0.156637      0.595089      0.537952
O	      2.19733      4.35063     -0.07111        -0.087170     -0.321448     -1.337891
O	      4.44939      2.29577     -4.31682         0.537442      0.487942      0.516940
O	      2.08398      6.45357     -2.15324        -0.262275     -0.876645      0.001372
