# total energy = -102.77021364 eV
 
CRYSTAL
PRIMVEC
2.186931 4.339524 2.174322 
4.279272 -2.141144 -2.137868 
0.003780 4.312391 -4.298079 
PRIMCOORD
16 1
Li	      0.07580      0.14083      0.02788         0.038033     -0.175262     -0.328738
Li	      2.26945      0.13122     -2.13935        -0.231233      0.028725     -0.171999
Li	      0.11789      2.14050     -2.23429        -0.048380      0.150455      0.145562
Li	      2.26941      2.35564     -4.35091        -0.050961     -0.274971      0.006933
Ti	      2.22477      4.37952     -2.11750         0.694897     -1.179291      0.346788
Ti	      4.43656      4.54257     -4.47963        -0.315849      0.465913      1.074233
Ni	      2.22415      2.22437      0.02493         0.535122      0.354738     -0.731824
Ni	      4.43321      2.25497     -2.19598        -0.419581      0.543138      0.029027
O	      2.22632      2.34379     -2.17529         0.668126      1.562440      0.317738
O	      4.33665      4.47242     -2.28109        -1.356487     -0.697118     -0.468605
O	      2.32530      4.44894     -4.31663         0.958126     -0.059523      0.931992
O	      4.43152      2.13650      0.00459        -0.518298     -0.589787     -0.795038
O	      4.41751      0.04329     -2.09785        -0.179708      0.892321      0.721832
O	      2.24062      4.43635     -0.07250        -0.191013     -0.478816     -1.791271
O	      4.53706      2.34100     -4.40187         0.762708      0.656057      0.778620
O	      2.12504      6.58073     -2.19566        -0.345502     -1.199018     -0.065249
