# total energy = -102.00709634 eV
 
CRYSTAL
PRIMVEC
2.208163 4.381655 2.195432 
4.320819 -2.161932 -2.158624 
0.003817 4.354259 -4.339808 
PRIMCOORD
16 1
Li	      0.09872      0.18612      0.04974         0.034300     -0.245984     -0.454243
Li	      2.33517      0.17632     -2.15978        -0.282450      0.046749     -0.212327
Li	      0.16214      2.16127     -2.29885        -0.054230      0.210984      0.190064
Li	      2.33513      2.44414     -4.41449        -0.066965     -0.331380      0.012401
Ti	      2.26818      4.46498     -2.15882         0.792462     -1.459763      0.379447
Ti	      4.52312      4.63120     -4.56704        -0.331856      0.612133      1.396778
Ni	      2.26754      2.26777      0.02542         0.643603      0.387682     -0.896958
Ni	      4.51971      2.29897     -2.23883        -0.483743      0.704290      0.034803
O	      2.26977      2.38952     -2.21773         0.828908      1.838455      0.380958
O	      4.42127      4.55969     -2.32560        -1.635696     -0.891046     -0.546128
O	      2.37068      4.53575     -4.40086         1.154901     -0.041164      1.117075
O	      4.51799      2.17819      0.00468        -0.660016     -0.719753     -1.031301
O	      4.50370      0.04413     -2.13878        -0.197547      1.171041      0.902251
O	      2.28434      4.52291     -0.07392        -0.300614     -0.604575     -2.162891
O	      4.62558      2.38668     -4.48776         0.985063      0.805149      1.034428
O	      2.16650      6.70913     -2.23850        -0.426121     -1.482819     -0.144357
