# total energy = -101.56600815 eV
 
CRYSTAL
PRIMVEC
2.218780 4.402721 2.205986 
4.341592 -2.172326 -2.169002 
0.003835 4.375193 -4.360672 
PRIMCOORD
16 1
Li	      0.11034      0.20909      0.06083         0.029224     -0.284900     -0.527374
Li	      2.36834      0.19918     -2.16999        -0.307348      0.055050     -0.230408
Li	      0.18458      2.17166     -2.33143        -0.054941      0.242164      0.211049
Li	      2.36830      2.48887     -4.44643        -0.078620     -0.356825      0.018811
Ti	      2.29004      4.50802     -2.17963         0.819713     -1.587433      0.388060
Ti	      4.56672      4.67584     -4.61106        -0.327735      0.686631      1.550694
Ni	      2.28940      2.28962      0.02566         0.684797      0.390385     -0.966544
Ni	      4.56327      2.32112     -2.26040        -0.493897      0.783283      0.039806
O	      2.29164      2.41255     -2.23911         0.895834      1.953244      0.399996
O	      4.46388      4.60364     -2.34801        -1.756209     -0.970533     -0.575638
O	      2.39353      4.57946     -4.44328         1.237649     -0.032870      1.192602
O	      4.56153      2.19918      0.00473        -0.719568     -0.785696     -1.139507
O	      4.54711      0.04455     -2.15940        -0.202000      1.304348      0.988362
O	      2.30636      4.56650     -0.07463        -0.358098     -0.662581     -2.325725
O	      4.67017      2.40969     -4.53102         1.095212      0.869296      1.161973
O	      2.18739      6.77380     -2.26008        -0.464012     -1.603565     -0.186156
