# total energy = -99.41119882 eV
 
CRYSTAL
PRIMVEC
1.957432 4.015033 1.941111 
3.918851 -2.005460 -1.949446 
-0.011557 4.070405 -3.980828 
PRIMCOORD
16 1
Li	      1.88805      3.83553      1.76810        -0.281008      0.180987      0.637712
Li	      1.87609      1.90887     -0.03058        -0.530329     -0.292666      0.597353
Li	      3.70248      3.79761     -0.00513         0.834648     -0.110076      0.685347
Li	      3.71930      1.93853     -1.84722         0.426868     -0.525655      0.209189
Ti	      1.84328      3.78117     -1.79157        -3.088368      1.897950     -1.468407
Ti	      3.69657      3.96118     -3.92094         2.413722      0.900776     -3.545015
Ni	      3.68004      0.02842     -3.67495         0.834276     -1.676180     -1.511239
Ni	      3.71429      5.76920     -1.92836         0.643554      2.880967     -0.466244
O	      1.81066      2.06418     -1.90640        -0.890742     -5.039382     -0.002127
O	      3.65476      3.89125     -1.95200         3.356170     -1.060214      0.843980
O	      1.94870      3.80844     -3.72141        -3.317227      0.386674     -2.661156
O	      3.73239      1.77169      0.00786         0.935000      0.156438      1.352640
O	      3.69918      0.01389     -1.81386         0.286057     -1.529076      0.845639
O	      1.88774      3.87500     -0.10781        -0.232610      0.619778      5.789592
O	      3.78379      1.99161     -3.76155        -0.379842     -0.617648     -1.092845
O	      1.78165      5.66606     -1.88784        -1.010168      3.827326     -0.214419
