# total energy = -100.35732235 eV
 
CRYSTAL
PRIMVEC
1.967734 4.036165 1.951327 
3.939476 -2.016015 -1.959706 
-0.011618 4.091828 -4.001780 
PRIMCOORD
16 1
Li	      1.90797      3.87601      1.78676        -0.246895      0.171261      0.541758
Li	      1.89589      1.92901     -0.03090        -0.455941     -0.239749      0.510820
Li	      3.74156      3.83769     -0.00518         0.715862     -0.104949      0.598723
Li	      3.75855      1.95899     -1.86671         0.361553     -0.476663      0.190814
Ti	      1.86274      3.82107     -1.81048        -2.596379      1.630334     -1.219724
Ti	      3.73558      4.00299     -3.96233         2.012192      0.770805     -3.126052
Ni	      3.71888      0.02872     -3.71374         0.732985     -1.452151     -1.267937
Ni	      3.75349      5.83008     -1.94872         0.529908      2.473452     -0.412993
O	      1.82977      2.08596     -1.92652        -0.743799     -4.282565      0.050974
O	      3.69333      3.93232     -1.97260         2.845806     -0.898103      0.703694
O	      1.96926      3.84863     -3.76069        -2.827415      0.363531     -2.264167
O	      3.77178      1.79039      0.00795         0.807462      0.115711      1.161883
O	      3.73822      0.01404     -1.83300         0.249332     -1.345859      0.721345
O	      1.90767      3.91590     -0.10894        -0.181692      0.530795      4.953229
O	      3.82372      2.01262     -3.80125        -0.358803     -0.541627     -0.955640
O	      1.80045      5.72586     -1.90776        -0.844175      3.285777     -0.186727
