# total energy = -101.16989293 eV
 
CRYSTAL
PRIMVEC
1.978036 4.057297 1.961543 
3.960102 -2.026570 -1.969966 
-0.011679 4.113251 -4.022732 
PRIMCOORD
16 1
Li	      1.92800      3.91670      1.80552        -0.213708      0.159390      0.457002
Li	      1.91579      1.94927     -0.03123        -0.384235     -0.188543      0.429022
Li	      3.78084      3.87798     -0.00524         0.609653     -0.098626      0.510624
Li	      3.79801      1.97955     -1.88631         0.298653     -0.421437      0.173252
Ti	      1.88229      3.86119     -1.82948        -2.153042      1.374152     -0.987181
Ti	      3.77480      4.04501     -4.00392         1.650808      0.662514     -2.737843
Ni	      3.75792      0.02902     -3.75273         0.637624     -1.244945     -1.043282
Ni	      3.79290      5.89129     -1.96917         0.431365      2.103823     -0.361291
O	      1.84898      2.10787     -1.94674        -0.611330     -3.589821      0.085429
O	      3.73211      3.97361     -1.99331         2.376361     -0.751159      0.575595
O	      1.98994      3.88903     -3.80017        -2.382278      0.337641     -1.897396
O	      3.81138      1.80918      0.00803         0.691343      0.067010      0.984124
O	      3.77747      0.01419     -1.85224         0.215582     -1.171758      0.625563
O	      1.92770      3.95701     -0.11009        -0.137962      0.443369      4.176059
O	      3.86386      2.03375     -3.84115        -0.324346     -0.467837     -0.827355
O	      1.81936      5.78597     -1.92779        -0.704488      2.786227     -0.162323
