# total energy = -101.85811321 eV
 
CRYSTAL
PRIMVEC
1.988339 4.078429 1.971760 
3.980727 -2.037125 -1.980227 
-0.011740 4.134675 -4.043684 
PRIMCOORD
16 1
Li	      1.94814      3.95761      1.82438        -0.182058      0.146755      0.379248
Li	      1.93580      1.96962     -0.03155        -0.323308     -0.145372      0.354965
Li	      3.82032      3.91848     -0.00529         0.512438     -0.094615      0.435043
Li	      3.83767      2.00023     -1.90601         0.244259     -0.369356      0.155291
Ti	      1.90195      3.90152     -1.84859        -1.755545      1.135151     -0.776224
Ti	      3.81422      4.08726     -4.04574         1.330523      0.567970     -2.372171
Ni	      3.79717      0.02933     -3.79192         0.543673     -1.049850     -0.844236
Ni	      3.83251      5.95282     -1.98974         0.344194      1.764960     -0.310219
O	      1.86829      2.12988     -1.96707        -0.487262     -2.951496      0.114703
O	      3.77109      4.01510     -2.01413         1.950591     -0.626858      0.463464
O	      2.01072      3.92966     -3.83986        -1.971368      0.313380     -1.568137
O	      3.85119      1.82808      0.00811         0.583451      0.021316      0.818339
O	      3.81692      0.01434     -1.87159         0.186135     -1.005325      0.545724
O	      1.94783      3.99834     -0.11124        -0.105098      0.362028      3.456070
O	      3.90422      2.05500     -3.88127        -0.288114     -0.393993     -0.708748
O	      1.83836      5.84640     -1.94793        -0.582511      2.325305     -0.143111
