# total energy = -102.43161805 eV
 
CRYSTAL
PRIMVEC
1.998641 4.099560 1.981976 
4.001353 -2.047680 -1.990487 
-0.011800 4.156098 -4.064635 
PRIMCOORD
16 1
Li	      1.96838      3.99872      1.84333        -0.153407      0.133825      0.308670
Li	      1.95591      1.99009     -0.03188        -0.263613     -0.108615      0.288355
Li	      3.86002      3.95919     -0.00535         0.419431     -0.082391      0.359837
Li	      3.87754      2.02101     -1.92582         0.195324     -0.317011      0.136847
Ti	      1.92171      3.94205     -1.86779        -1.399535      0.910970     -0.582247
Ti	      3.85385      4.12973     -4.08777         1.046884      0.489902     -2.027488
Ni	      3.83662      0.02963     -3.83132         0.456463     -0.872108     -0.663185
Ni	      3.87233      6.01467     -2.01041         0.272310      1.446566     -0.264063
O	      1.88770      2.15201     -1.98751        -0.377404     -2.366402      0.133130
O	      3.81027      4.05682     -2.03506         1.556939     -0.509530      0.371432
O	      2.03161      3.97048     -3.87975        -1.592657      0.284550     -1.271852
O	      3.89120      1.84707      0.00820         0.479946     -0.021616      0.663056
O	      3.85657      0.01448     -1.89103         0.152409     -0.847282      0.478035
O	      1.96807      4.03988     -0.11239        -0.074204      0.287582      2.789707
O	      3.94478      2.07635     -3.92160        -0.239954     -0.327727     -0.593996
O	      1.85746      5.90714     -1.96816        -0.478930      1.899286     -0.126238
