# total energy = -102.89869572 eV
 
CRYSTAL
PRIMVEC
2.008943 4.120692 1.992192 
4.021978 -2.058235 -2.000747 
-0.011861 4.177521 -4.085587 
PRIMCOORD
16 1
Li	      1.98872      4.04006      1.86238        -0.122041      0.117770      0.244379
Li	      1.97613      2.01066     -0.03221        -0.211052     -0.078198      0.225421
Li	      3.89991      4.00011     -0.00540         0.334961     -0.072846      0.290161
Li	      3.91762      2.04190     -1.94572         0.149858     -0.264034      0.116845
Ti	      1.94157      3.98280     -1.88710        -1.084016      0.697930     -0.404775
Ti	      3.89369      4.17241     -4.13002         0.795465      0.425387     -1.703117
Ni	      3.87627      0.02994     -3.87092         0.368177     -0.704180     -0.500757
Ni	      3.91235      6.07683     -2.03119         0.204369      1.153591     -0.214235
O	      1.90721      2.17425     -2.00805        -0.274845     -1.828391      0.144515
O	      3.84964      4.09875     -2.05609         1.198656     -0.413954      0.280353
O	      2.05261      4.01152     -3.91986        -1.242131      0.258772     -1.002747
O	      3.93141      1.86616      0.00829         0.389074     -0.067657      0.515863
O	      3.89644      0.01463     -1.91058         0.125884     -0.692922      0.430355
O	      1.98841      4.08164     -0.11355        -0.051002      0.216041      2.173438
O	      3.98555      2.09780     -3.96213        -0.194011     -0.257907     -0.483029
O	      1.87666      5.96820     -1.98851        -0.387346      1.510596     -0.112671
