# total energy = -103.26574426 eV
 
CRYSTAL
PRIMVEC
2.019245 4.141824 2.002409 
4.042604 -2.068790 -2.011007 
-0.011922 4.198944 -4.106539 
PRIMCOORD
16 1
Li	      2.00917      4.08160      1.88154        -0.096950      0.099101      0.180201
Li	      1.99645      2.03133     -0.03254        -0.162149     -0.053414      0.167765
Li	      3.94001      4.04125     -0.00546         0.252588     -0.064131      0.223519
Li	      3.95791      2.06289     -1.96573         0.114971     -0.211286      0.099952
Ti	      1.96154      4.02375     -1.90650        -0.804056      0.499293     -0.242646
Ti	      3.93373      4.21532     -4.17249         0.576039      0.373692     -1.395653
Ni	      3.91613      0.03025     -3.91072         0.286652     -0.547113     -0.355049
Ni	      3.95258      6.13932     -2.05208         0.148546      0.886972     -0.165309
O	      1.92682      2.19661     -2.02871        -0.183349     -1.343278      0.146442
O	      3.88923      4.14090     -2.07723         0.875026     -0.331429      0.204665
O	      2.07371      4.05277     -3.96016        -0.925761      0.229716     -0.751618
O	      3.97184      1.88535      0.00837         0.301908     -0.111395      0.374074
O	      3.93650      0.01478     -1.93023         0.098975     -0.545707      0.397624
O	      2.00885      4.12360     -0.11472        -0.033404      0.150611      1.602366
O	      4.02654      2.11938     -4.00287        -0.137047     -0.188299     -0.381245
O	      1.89595      6.02957     -2.00895        -0.311989      1.156666     -0.105088
