# total energy = -103.54086052 eV
 
CRYSTAL
PRIMVEC
2.029548 4.162956 2.012625 
4.063230 -2.079345 -2.021267 
-0.011983 4.220367 -4.127491 
PRIMCOORD
16 1
Li	      2.02973      4.12336      1.90078        -0.072947      0.079552      0.123376
Li	      2.01687      2.05211     -0.03287        -0.115153     -0.032379      0.115930
Li	      3.98032      4.08259     -0.00551         0.180364     -0.050332      0.167068
Li	      3.99840      2.08400     -1.98584         0.076669     -0.159855      0.084001
Ti	      1.98160      4.06491     -1.92601        -0.557868      0.311111     -0.093277
Ti	      3.97397      4.25844     -4.21518         0.385462      0.333274     -1.104481
Ni	      3.95620      0.03056     -3.95073         0.206684     -0.399223     -0.227247
Ni	      3.99301      6.20213     -2.07307         0.101183      0.640009     -0.127552
O	      1.94654      2.21908     -2.04946        -0.098429     -0.897391      0.144586
O	      3.92902      4.18326     -2.09848         0.577389     -0.260875      0.136597
O	      2.09493      4.09422     -4.00067        -0.630220      0.202442     -0.529115
O	      4.01247      1.90464      0.00845         0.219782     -0.153560      0.241252
O	      3.97677      0.01494     -1.94997         0.073143     -0.405272      0.374784
O	      2.02940      4.16579     -0.11589        -0.021521      0.089008      1.076042
O	      4.06773      2.14106     -4.04382        -0.073537     -0.116775     -0.281413
O	      1.91535      6.09125     -2.02951        -0.251000      0.820266     -0.100551
