# total energy = -103.84294493 eV
 
CRYSTAL
PRIMVEC
2.050152 4.205219 2.033058 
4.104481 -2.100455 -2.041788 
-0.012105 4.263214 -4.169394 
PRIMCOORD
16 1
Li	      2.07115      4.20751      1.93957        -0.024991      0.036023      0.015605
Li	      2.05803      2.09399     -0.03354        -0.036718     -0.001119      0.020851
Li	      4.06155      4.16591     -0.00563         0.054372     -0.028644      0.054861
Li	      4.07999      2.12653     -2.02636         0.017000     -0.058210      0.052791
Ti	      2.02205      4.14787     -1.96531        -0.153615     -0.030907      0.160029
Ti	      4.05506      4.34534     -4.30120         0.083924      0.282491     -0.564251
Ni	      4.03693      0.03118     -4.03135         0.056358     -0.132912     -0.008796
Ni	      4.07450      6.32869     -2.11538         0.022970      0.201860     -0.044438
O	      1.98626      2.26437     -2.09128         0.046490     -0.121548      0.116747
O	      4.00920      4.26863     -2.14131         0.062780     -0.144656      0.027027
O	      2.13768      4.17778     -4.08232        -0.113202      0.151338     -0.144721
O	      4.09436      1.94351      0.00863         0.070797     -0.240935     -0.004740
O	      4.05793      0.01524     -1.98977         0.023417     -0.130134      0.368088
O	      2.07082      4.25080     -0.11826        -0.007852     -0.037110      0.142186
O	      4.15074      2.18475     -4.12634         0.063972      0.016051     -0.094196
O	      1.95443      6.21555     -2.07092        -0.165702      0.238412     -0.097044
