# total energy = -103.85079581 eV
 
CRYSTAL
PRIMVEC
2.070757 4.247483 2.053491 
4.145732 -2.121565 -2.062308 
-0.012226 4.306060 -4.211297 
PRIMCOORD
16 1
Li	      0.04223      0.04502     -0.07474         0.011910     -0.012692     -0.082713
Li	      2.09961      2.13629     -0.03422         0.030132      0.017426     -0.059900
Li	      2.07284      0.00258     -2.05923        -0.052932     -0.004533     -0.041709
Li	      4.16241      2.16948     -2.06730        -0.027155      0.040265      0.024706
Ti	      2.06289      4.23166     -2.00502         0.143904     -0.330994      0.361897
Ti	      4.13698      4.43312     -4.38809        -0.127397      0.263227     -0.070287
Ni	      4.11848      0.03181     -4.11279        -0.075115      0.112740      0.157680
Ni	      2.08606      2.20906     -4.21160        -0.030088     -0.165366      0.020786
O	      2.02639      2.31011     -2.13353         0.160454      0.510620      0.076428
O	      4.09019      4.35486     -2.18456        -0.360943     -0.076176     -0.050061
O	      2.18087      4.26218     -4.16479         0.313757      0.091114      0.161233
O	      4.17707      1.98277      0.00880        -0.059157     -0.320354     -0.233303
O	      4.13991      0.01555     -2.02996        -0.018794      0.133342      0.400511
O	      2.11265      4.33668     -0.12065        -0.013925     -0.159289     -0.649831
O	      4.23459      2.22889     -4.20970         0.220878      0.154513      0.084018
O	      1.99392      6.34112     -2.11276        -0.115529     -0.253844     -0.099458
