# total energy = -103.75792838 eV
 
CRYSTAL
PRIMVEC
2.081059 4.268614 2.063707 
4.166357 -2.132120 -2.072569 
-0.012287 4.327483 -4.232249 
PRIMCOORD
16 1
Li	      0.05301      0.06670     -0.06521         0.030295     -0.042242     -0.131351
Li	      2.12055      2.15760     -0.03456         0.060501      0.022947     -0.095781
Li	      2.10387      0.02384     -2.06950        -0.103213      0.007399     -0.086074
Li	      4.20394      2.19113     -2.08792        -0.043214      0.087198      0.012801
Ti	      2.08347      4.27387     -2.02502         0.260562     -0.466773      0.445165
Ti	      4.17825      4.47734     -4.43186        -0.202676      0.264524      0.163400
Ni	      4.15957      0.03213     -4.15381        -0.141158      0.235671      0.227029
Ni	      2.11722      2.25234     -4.24334        -0.051634     -0.331858      0.058707
O	      2.04660      2.33316     -2.15481         0.209497      0.781624      0.047800
O	      4.13099      4.39830     -2.20636        -0.539469     -0.052310     -0.082893
O	      2.20262      4.30469     -4.20633         0.503241      0.062680      0.292126
O	      4.21874      2.00255      0.00889        -0.120453     -0.356631     -0.343229
O	      4.18120      0.01570     -2.05021        -0.036656      0.259876      0.425900
O	      2.13373      4.37993     -0.12185        -0.018941     -0.222597     -0.997804
O	      4.27683      2.25112     -4.25170         0.298391      0.225779      0.172808
O	      2.01381      6.40437     -2.13383        -0.105072     -0.475286     -0.108605
