# total energy = -103.60656202 eV
 
CRYSTAL
PRIMVEC
2.091361 4.289746 2.073923 
4.186983 -2.142675 -2.082829 
-0.012348 4.348906 -4.253201 
PRIMCOORD
16 1
Li	      0.06389      0.08860     -0.05559         0.045484     -0.070056     -0.179046
Li	      2.14160      2.17902     -0.03491         0.088905      0.024139     -0.128797
Li	      2.13511      0.04531     -2.07978        -0.145931      0.018969     -0.127854
Li	      4.24566      2.21287     -2.10865        -0.056670      0.137043     -0.000337
Ti	      2.10415      4.31629     -2.04512         0.356005     -0.595144      0.517569
Ti	      4.21972      4.52179     -4.47585        -0.260188      0.270133      0.389051
Ni	      0.01387      2.17512     -2.11222        -0.195198      0.356844      0.281338
Ni	      2.14859      2.29593     -4.27520        -0.074406     -0.483135      0.086652
O	      2.06691      2.35631     -2.17620         0.251658      1.023819      0.016171
O	      4.17199      4.44196     -2.22825        -0.699949     -0.036259     -0.106141
O	      2.22449      4.34742     -4.24808         0.676457      0.029422      0.405543
O	      4.26061      2.02243      0.00898        -0.178579     -0.392230     -0.441635
O	      4.22270      0.01586     -2.07056        -0.058172      0.382619      0.461988
O	      2.15490      4.42340     -0.12306        -0.030565     -0.283295     -1.316831
O	      4.31929      2.27346     -4.29389         0.383943      0.292801      0.261263
O	      2.03379      6.46794     -2.15502        -0.102794     -0.675670     -0.118934
