# total energy = -92.48069593 eV
 
CRYSTAL
PRIMVEC
2.001468 4.158665 2.064735 
4.088519 -2.102670 -2.102287 
0.011096 4.154576 -4.132265 
PRIMCOORD
16 1
Li	      2.04171      2.04420     -0.00743         0.024337      0.013197      0.010698
Li	      2.02996      0.01117     -2.08890        -0.026744     -0.013438     -0.010209
Li	      2.07774      4.09270     -2.13642         0.012957     -0.027534      0.011529
Li	      2.00492      2.11829     -4.09164        -0.015330      0.026957     -0.010973
Mn	      0.07315      4.15420     -4.13076         0.038019     -0.050512     -0.061175
Mn	      4.00876      2.05622     -2.09788        -0.036012      0.050261      0.061934
Ni	      0.06230      2.07238     -2.06738         0.031621     -0.007126      0.003351
Ni	      4.01974      4.13816     -4.16121        -0.031349      0.007392     -0.003445
O	      4.07475      3.95355     -2.14192        -0.091886     -0.091590      0.122390
O	      4.08514      2.05399     -4.16545         0.000193     -0.001045      0.000858
O	      4.14384      2.03427     -0.17421         0.035504      0.106456     -0.031709
O	      4.07972     -0.02334     -2.09934         0.000310     -0.000724      0.000634
O	      1.92860      4.18041      0.14265        -0.035705     -0.106373      0.030864
O	      2.15397      2.04263     -2.09331         0.136425      0.003203      0.007944
O	      2.00860      6.41553     -2.02200         0.092487      0.093302     -0.122234
O	      1.92799      4.16760     -4.13497        -0.134827     -0.002425     -0.010455
