# total energy = -103.40066761 eV
 
CRYSTAL
PRIMVEC
2.101664 4.310878 2.084140 
4.207608 -2.153230 -2.093089 
-0.012409 4.370330 -4.274153 
PRIMCOORD
16 1
Li	      0.07487      0.11071     -0.04587         0.055727     -0.105200     -0.229057
Li	      2.16275      2.20054     -0.03525         0.115216      0.025368     -0.160032
Li	      2.16655      0.06699     -2.09005        -0.187700      0.029834     -0.170724
Li	      4.28759      2.23473     -2.12947        -0.068287      0.182573     -0.013932
Ti	      2.12493      4.35892     -2.06532         0.434191     -0.714691      0.579269
Ti	      4.26140      4.56644     -4.52005        -0.301108      0.279529      0.608712
Ni	      0.03473      2.18600     -2.14339        -0.247136      0.474728      0.333612
Ni	      2.18016      2.33984     -4.30715        -0.087066     -0.620770      0.110321
O	      2.08733      2.37958     -2.19769         0.287843      1.242655     -0.017547
O	      4.21320      4.48583     -2.25026        -0.847766     -0.025542     -0.120816
O	      2.24645      4.39036     -4.29004         0.831481      0.001447      0.509418
O	      4.30269      2.04240      0.00907        -0.229636     -0.427011     -0.537248
O	      4.26441      0.01602     -2.09101        -0.075109      0.506872      0.501407
O	      2.17619      4.46709     -0.12428        -0.046927     -0.351903     -1.611021
O	      4.36194      2.29592     -4.33630         0.470342      0.362511      0.349185
O	      2.05388      6.53182     -2.17630        -0.104066     -0.860399     -0.131546
