# total energy = -103.14459131 eV
 
CRYSTAL
PRIMVEC
2.111966 4.332010 2.094356 
4.228234 -2.163785 -2.103349 
-0.012470 4.391753 -4.295104 
PRIMCOORD
16 1
Li	      0.08596      0.13304     -0.03606         0.068915     -0.136514     -0.280673
Li	      2.18400      2.22216     -0.03560         0.138673      0.020076     -0.186379
Li	      2.19819      0.08889     -2.10033        -0.225494      0.041265     -0.210247
Li	      4.32973      2.25669     -2.15040        -0.076188      0.229711     -0.028353
Ti	      2.14582      4.40176     -2.08561         0.494167     -0.826018      0.630973
Ti	      4.30328      4.61133     -4.56448        -0.328142      0.293721      0.820065
Ni	      0.05580      2.19688     -2.17476        -0.296086      0.591584      0.377530
Ni	      2.21194      2.38407     -4.33922        -0.104484     -0.748008      0.135374
O	      2.10784      2.40297     -2.21929         0.322380      1.435412     -0.054133
O	      4.25460      4.52991     -2.27238        -0.980639     -0.021770     -0.136505
O	      2.26853      4.43350     -4.33220         0.974234     -0.032440      0.602711
O	      4.34498      2.06247      0.00915        -0.286627     -0.458643     -0.632209
O	      4.30632      0.01617     -2.11156        -0.089681      0.630845      0.547009
O	      2.19757      4.51100     -0.12550        -0.063938     -0.418618     -1.879905
O	      4.40481      2.31849     -4.37892         0.559394      0.432566      0.435051
O	      2.07407      6.59602     -2.19769        -0.106486     -1.033170     -0.140307
