# total energy = -102.49469442 eV
 
CRYSTAL
PRIMVEC
2.132570 4.374273 2.114789 
4.269485 -2.184896 -2.123870 
-0.012591 4.434599 -4.337008 
PRIMCOORD
16 1
Li	      0.10845      0.17833     -0.01613         0.083882     -0.203712     -0.389262
Li	      2.22683      2.26574     -0.03629         0.182167      0.006420     -0.239040
Li	      2.26210      0.13331     -2.12088        -0.292616      0.060614     -0.287130
Li	      4.41463      2.30094     -2.19256        -0.088526      0.321096     -0.049748
Ti	      2.18789      4.48807     -2.12651         0.571955     -1.027426      0.704934
Ti	      4.38765      4.70174     -4.65397        -0.342381      0.332174      1.226135
Ni	      0.09855      2.21863     -2.23812        -0.374892      0.830955      0.434346
Ni	      2.27611      2.47349     -4.40366        -0.134542     -0.970004      0.172500
O	      2.14917      2.45008     -2.26281         0.370902      1.753917     -0.126980
O	      4.33803      4.61873     -2.31693        -1.200624     -0.038517     -0.153557
O	      2.31301      4.52043     -4.41714         1.222203     -0.095067      0.758118
O	      4.43017      2.10291      0.00933        -0.380793     -0.513915     -0.815780
O	      4.39076      0.01649     -2.15296        -0.120369      0.875008      0.650094
O	      2.24067      4.59945     -0.12796        -0.100240     -0.561822     -2.335953
O	      4.49118      2.36394     -4.46478         0.744708      0.570231      0.617051
O	      2.11473      6.72535     -2.24078        -0.140833     -1.339954     -0.165726
