# total energy = -102.10744678 eV
 
CRYSTAL
PRIMVEC
2.142873 4.395405 2.125005 
4.290110 -2.195451 -2.134130 
-0.012652 4.456022 -4.357960 
PRIMCOORD
16 1
Li	      0.11986      0.20128     -0.00602         0.085581     -0.242061     -0.449486
Li	      2.24840      2.28768     -0.03665         0.201234     -0.003202     -0.262262
Li	      2.29436      0.15584     -2.13115        -0.320604      0.071101     -0.324977
Li	      4.45738      2.32323     -2.21380        -0.090106      0.364209     -0.059368
Ti	      2.20908      4.53154     -2.14710         0.592342     -1.119823      0.728844
Ti	      4.43015      4.74727     -4.69905        -0.331692      0.354730      1.421970
Ni	      0.12023      2.22951     -2.27011        -0.411740      0.954690      0.454692
Ni	      2.30851      2.51868     -4.43605        -0.140639     -1.068644      0.190929
O	      2.16999      2.47381     -2.28472         0.388628      1.887400     -0.164865
O	      4.38004      4.66347     -2.33938        -1.293840     -0.047466     -0.161853
O	      2.33542      4.56421     -4.45992         1.332169     -0.126109      0.824490
O	      4.47308      2.12328      0.00943        -0.426694     -0.540570     -0.901904
O	      4.43328      0.01665     -2.17382        -0.135532      0.999727      0.707216
O	      2.26236      4.64399     -0.12920        -0.127558     -0.637231     -2.533886
O	      4.53468      2.38684     -4.50802         0.837813      0.635837      0.712434
O	      2.13522      6.79048     -2.26248        -0.159364     -1.482586     -0.181973
