# total energy = -101.68238810 eV
 
CRYSTAL
PRIMVEC
2.153175 4.416537 2.135222 
4.310736 -2.206006 -2.144390 
-0.012713 4.477446 -4.378911 
PRIMCOORD
16 1
Li	      0.13136      0.22445      0.00419         0.087278     -0.279145     -0.510639
Li	      2.27007      2.30973     -0.03700         0.223852     -0.014313     -0.283422
Li	      2.32683      0.17857     -2.14143        -0.348392      0.078273     -0.362583
Li	      4.50035      2.34561     -2.23513        -0.090767      0.407071     -0.069131
Ti	      2.23037      4.57521     -2.16780         0.600595     -1.204833      0.744861
Ti	      4.47285      4.79304     -4.74434        -0.310333      0.379096      1.614659
Ni	      0.14211      2.24039     -2.30230        -0.438232      1.083953      0.468184
Ni	      2.34111      2.56419     -4.46854        -0.154700     -1.159742      0.197361
O	      2.19090      2.49766     -2.30674         0.400657      2.000489     -0.204266
O	      4.42226      4.70841     -2.36192        -1.376326     -0.064604     -0.164134
O	      2.35792      4.60821     -4.50291         1.431609     -0.160398      0.883646
O	      4.51619      2.14375      0.00952        -0.470566     -0.566958     -0.985581
O	      4.47601      0.01681     -2.19476        -0.145931      1.127507      0.768773
O	      2.28417      4.68875     -0.13044        -0.153538     -0.722817     -2.712119
O	      4.57838      2.40984     -4.55147         0.932273      0.701956      0.818215
O	      2.15580      6.85593     -2.28429        -0.187478     -1.605536     -0.203824
