# total energy = -101.79057552 eV
 
CRYSTAL
PRIMVEC
2.010727 4.008290 1.994407 
4.009817 -1.990297 -2.010559 
0.010768 4.035792 -4.054203 
PRIMCOORD
16 1
Li	      1.97211      3.89514      1.85599        -0.159491      0.177135      0.370966
Li	      1.91950      1.92643     -0.02814        -0.349787     -0.363939      0.348751
Li	      3.89353      1.96851     -1.94503         0.260378     -0.468580      0.099361
Li	      3.84165     -0.00005     -3.82941         0.218694     -0.233136     -0.112588
Ti	      1.88791      3.78910     -1.86228        -2.169116      1.115047     -1.501622
Ti	      3.93580      4.00054     -4.02297         0.901836      0.425052     -2.128533
Ni	      3.87687      3.88135     -0.02427         1.509488      0.320421      1.424353
Ni	      3.88209      5.82870     -1.98033         0.487591      2.038587     -0.419203
O	      1.90908      2.01568     -1.99345        -0.679634     -2.650333      0.228950
O	      3.78460      3.93185     -2.00382         2.169198     -0.765143     -0.272547
O	      2.03911      3.85752     -3.88154        -1.443231      0.351391     -1.293899
O	      3.90427      1.87927      0.02047         0.501794     -0.353172      0.682385
O	      3.82343      0.03353     -1.84784         0.641444     -1.067042     -0.265647
O	      1.98985      3.86153     -0.12520        -1.177125      0.446316      3.552285
O	      3.96184      2.05625     -3.89756        -0.309462     -1.208174     -0.701059
O	      1.86189      5.73321     -1.98784        -0.402577      2.235570     -0.011954
