# total energy = -88.84860779 eV
 
CRYSTAL
PRIMVEC
-0.001291 2.164236 2.154024 
4.058512 0.108682 -0.112676 
0.477852 8.741865 -8.704587 
PRIMCOORD
16 1
Li	      3.87657      2.71238     -2.56622        -0.005346      0.002827     -0.014874
Li	      1.97955      4.54053     -2.30724        -0.000250      0.009287      0.003257
Li	      0.35972      4.47987     -4.41993         0.007123     -0.006259      0.019452
Li	      2.60246      6.50891     -4.30071         0.010973     -0.023836      0.028713
Mn	      4.50305     10.88995     -6.66337        -0.000081      0.033234     -0.040618
Mn	      1.92760      2.31765     -0.21644         0.008704      0.003748     -0.048779
Ni	      0.57855      6.36225     -6.28442        -0.017861      0.070715     -0.048232
Ni	      2.53777      8.65566     -6.40282        -0.005767      0.082758     -0.077575
O	      2.57612      6.70826     -6.59567         0.032082     -0.114556      0.080049
O	      0.49528      8.82516     -6.55938        -0.000984      0.053004     -0.030232
O	      2.47512      4.34691     -4.26436        -0.011414      0.004946     -0.013033
O	      0.56435      6.57238     -4.33102        -0.002148     -0.135347      0.134848
O	      1.88856      2.20457     -2.08993        -0.002766     -0.001005      0.022437
O	      3.97166      4.63839     -2.35192         0.009657     -0.006246      0.007494
O	      1.98838      2.11117      1.83107        -0.004777      0.051570     -0.024152
O	      3.97507      1.92726     -0.12974        -0.017144     -0.024839      0.001247
