# total energy = -102.85151374 eV
 
CRYSTAL
PRIMVEC
2.031564 4.049827 2.015075 
4.051370 -2.010922 -2.031394 
0.010879 4.077614 -4.096216 
PRIMCOORD
16 1
Li	      2.01319      3.97628      1.89465        -0.104413      0.136079      0.243924
Li	      1.95949      1.96656     -0.02873        -0.236432     -0.227047      0.225383
Li	      3.97465      2.00952     -1.98555         0.169898     -0.327055      0.069748
Li	      3.92168     -0.00005     -3.90918         0.145688     -0.160174     -0.063878
Ti	      1.92724      3.86803     -1.90107        -1.408976      0.700106     -0.907365
Ti	      4.01779      4.08388     -4.10678         0.565273      0.269551     -1.517598
Ni	      3.95764      3.96222     -0.02477         0.965969      0.175869      0.936141
Ni	      3.96296      5.95013     -2.02158         0.300976      1.339301     -0.288454
O	      1.94885      2.05767     -2.03498        -0.446145     -1.622208      0.232264
O	      3.86344      4.01377     -2.04556         1.394148     -0.517976     -0.223802
O	      2.08159      3.93789     -3.96241        -0.912196      0.284075     -0.780882
O	      3.98560      1.91842      0.02089         0.329423     -0.273199      0.414437
O	      3.90309      0.03423     -1.88634         0.483506     -0.733727     -0.111493
O	      2.03130      3.94197     -0.12780        -0.779072      0.290282      2.238678
O	      4.04437      2.09909     -3.97876        -0.180449     -0.784717     -0.473444
O	      1.90068      5.85265     -2.02926        -0.287197      1.450840      0.006340
