# total energy = -103.70640922 eV
 
CRYSTAL
PRIMVEC
2.062819 4.112132 2.046076 
4.113698 -2.041860 -2.062646 
0.011047 4.140346 -4.159234 
PRIMCOORD
16 1
Li	      2.07561      4.09958      1.95340        -0.036945      0.064351      0.076257
Li	      2.02025      2.02754     -0.02962        -0.094512     -0.067572      0.071106
Li	      4.09788      2.07182     -2.04712         0.062768     -0.136065      0.035178
Li	      4.04328     -0.00006     -4.03039         0.057701     -0.064658     -0.006915
Ti	      1.98700      3.98796     -1.96002        -0.538838      0.159231     -0.159999
Ti	      4.14237      4.21050     -4.23411         0.232376      0.160469     -0.723010
Ni	      4.08034      4.08507     -0.02554         0.325052      0.043763      0.337758
Ni	      4.08583      6.13461     -2.08426         0.096002      0.474440     -0.108310
O	      2.00928      2.12148     -2.09808        -0.160112     -0.392915      0.179598
O	      3.98323      4.13822     -2.10898         0.452783     -0.258956     -0.154453
O	      2.14614      4.05998     -4.08527        -0.279087      0.194324     -0.189275
O	      4.10918      1.97790      0.02154         0.123486     -0.234771      0.073207
O	      4.02410      0.03529     -1.94482         0.268175     -0.276700      0.120100
O	      2.09428      4.06420     -0.13176        -0.342614      0.099837      0.613272
O	      4.16978      2.16417     -4.10212         0.040171     -0.264353     -0.180218
O	      1.95962      6.03412     -2.09217        -0.206406      0.499576      0.015705
