# total energy = -103.82346657 eV
 
CRYSTAL
PRIMVEC
2.073237 4.132900 2.056409 
4.134475 -2.052172 -2.073064 
0.011102 4.161257 -4.180241 
PRIMCOORD
16 1
Li	      2.09663      4.14109      1.97318        -0.020929      0.039625      0.024310
Li	      2.04070      2.04807     -0.02992        -0.052236     -0.025452      0.026351
Li	      4.13938      2.09280     -2.06785         0.037788     -0.072804      0.023499
Li	      4.08422     -0.00005     -4.07121         0.031604     -0.035851      0.008981
Ti	      2.00712      4.02835     -1.97986        -0.309114     -0.001787      0.053461
Ti	      4.18431      4.25314     -4.27699         0.159285      0.150908     -0.484266
Ni	      4.12167      4.12643     -0.02580         0.153881      0.018993      0.162984
Ni	      4.12721      6.19674     -2.10537         0.042802      0.227536     -0.050116
O	      2.02963      2.14295     -2.11933        -0.079141     -0.056008      0.154458
O	      4.02357      4.18012     -2.13034         0.187519     -0.190305     -0.132216
O	      2.16787      4.10110     -4.12664        -0.103768      0.163943     -0.030679
O	      4.15080      1.99793      0.02176         0.059474     -0.240699     -0.028675
O	      4.06486      0.03565     -1.96452         0.201500     -0.133980      0.195983
O	      2.11549      4.10536     -0.13310        -0.229338      0.043253      0.151141
O	      4.21200      2.18609     -4.14366         0.119585     -0.118719     -0.085896
O	      1.97946      6.09522     -2.11336        -0.198913      0.231347      0.010681
