# total energy = -103.84158546 eV
 
CRYSTAL
PRIMVEC
2.094073 4.174437 2.077077 
4.176027 -2.072797 -2.093898 
0.011214 4.203079 -4.222253 
PRIMCOORD
16 1
Li	      0.04491      0.05031     -0.06403         0.008276     -0.020740     -0.069938
Li	      2.08193      2.08945     -0.03053         0.020234      0.045258     -0.054786
Li	      4.22300      2.13508     -2.10962        -0.003514      0.048022      0.005315
Li	      4.16673     -0.00006     -4.15345        -0.017625      0.018699      0.040921
Ti	      2.04767      4.10972     -2.01986         0.075864     -0.296618      0.434885
Ti	      4.26884      4.33906     -4.36339         0.062165      0.162792     -0.034354
Ni	      2.11085      0.03536     -2.10340        -0.137924     -0.010698     -0.153051
Ni	      2.11651      2.14748     -4.22498        -0.038162     -0.209338      0.046219
O	      2.07063      2.18624     -2.16214         0.070292      0.520297      0.091263
O	      4.10485      4.26457     -2.17338        -0.277555     -0.085471     -0.091564
O	      2.21166      4.18394     -4.21000         0.199269      0.101985      0.241038
O	      4.23465      2.03829      0.02220        -0.053967     -0.260976     -0.214920
O	      4.14697      0.03637     -2.00420         0.077161      0.140734      0.351257
O	      2.15823      4.18829     -0.13579        -0.059759     -0.054833     -0.665099
O	      4.29709      2.23025     -4.22737         0.282883      0.139222      0.086056
O	      2.01945      6.21835     -2.15605        -0.207638     -0.238336     -0.013242
