# total energy = -103.75479799 eV
 
CRYSTAL
PRIMVEC
2.104492 4.195205 2.087411 
4.196803 -2.083109 -2.104316 
0.011270 4.223990 -4.243259 
PRIMCOORD
16 1
Li	      0.05583      0.07168     -0.05429         0.018517     -0.053266     -0.119322
Li	      2.10269      2.11029     -0.03083         0.052931      0.071788     -0.091516
Li	      4.26513      2.15637     -2.13066        -0.020538      0.103575     -0.005469
Li	      0.01149      2.08305     -2.09057        -0.043461      0.049236      0.053633
Ti	      2.06809      4.15072     -2.04001         0.233917     -0.430723      0.601780
Ti	      4.31143      4.38234     -4.40691         0.033272      0.181608      0.177471
Ni	      2.14238      0.05658     -2.11400        -0.260178     -0.012802     -0.293946
Ni	      2.14810      2.18978     -4.25674        -0.072640     -0.406299      0.092144
O	      2.09128      2.20806     -2.18371         0.139013      0.768442      0.053475
O	      4.14579      4.30711     -2.19505        -0.480160     -0.043527     -0.068422
O	      2.23372      4.22568     -4.25199         0.332918      0.075114      0.354777
O	      4.27689      2.05862      0.02242        -0.104380     -0.280225     -0.301990
O	      4.18834      0.03673     -2.02420         0.018099      0.274677      0.425480
O	      2.17976      4.23007     -0.13714         0.009836     -0.105644     -1.024265
O	      4.33995      2.25250     -4.26954         0.364475      0.253619      0.172398
O	      2.03959      6.28038     -2.17756        -0.221621     -0.445572     -0.026229
