# total energy = -103.60820084 eV
 
CRYSTAL
PRIMVEC
2.114910 4.215973 2.097744 
4.217580 -2.093422 -2.114733 
0.011326 4.244901 -4.264265 
PRIMCOORD
16 1
Li	      0.06685      0.09326     -0.04444         0.027775     -0.087165     -0.167772
Li	      2.12356      2.13123     -0.03113         0.084118      0.096444     -0.125427
Li	      4.30746      2.17778     -2.15181        -0.033718      0.158820     -0.013183
Li	      0.03248      2.09336     -2.12179        -0.062351      0.081283      0.070646
Ti	      2.08862      4.19192     -2.06026         0.371972     -0.557063      0.755745
Ti	      4.35422      4.42584     -4.45066         0.017426      0.208017      0.383631
Ni	      2.17411      0.07802     -2.12459        -0.375193     -0.017958     -0.432982
Ni	      2.17988      2.23238     -4.28860        -0.104625     -0.590698      0.132784
O	      2.11204      2.22997     -2.20538         0.201863      0.989608      0.015295
O	      4.18695      4.34986     -2.21684        -0.661259     -0.008282     -0.048192
O	      2.25589      4.26763     -4.29420         0.453207      0.046001      0.461811
O	      4.31934      2.07905      0.02265        -0.153697     -0.302623     -0.386566
O	      4.22991      0.03709     -2.04429        -0.038995      0.406742      0.503062
O	      2.20139      4.27205     -0.13851         0.064473     -0.145335     -1.354948
O	      4.38303      2.27486     -4.31192         0.450702      0.360236      0.253928
O	      2.05984      6.34271     -2.19917        -0.241699     -0.638029     -0.047833
