# total energy = -103.40768071 eV
 
CRYSTAL
PRIMVEC
2.125328 4.236742 2.108078 
4.238356 -2.103734 -2.125151 
0.011381 4.265811 -4.285272 
PRIMCOORD
16 1
Li	      0.07798      0.11506     -0.03450         0.034375     -0.123196     -0.218131
Li	      2.14454      2.15228     -0.03145         0.114215      0.117785     -0.156547
Li	      4.35000      2.19929     -2.17306        -0.041752      0.211797     -0.020036
Li	      0.05368      2.10367     -2.15321        -0.079721      0.109902      0.085150
Ti	      2.10925      4.23332     -2.08061         0.494433     -0.677396      0.894334
Ti	      4.39722      4.46955     -4.49461         0.012826      0.239241      0.583743
Ni	      2.20606      0.09965     -2.13519        -0.468856     -0.012745     -0.562192
Ni	      2.21189      2.27530     -4.32057        -0.129783     -0.760282      0.171221
O	      2.13290      2.25200     -2.22716         0.252910      1.189127     -0.024757
O	      4.22830      4.39282     -2.23874        -0.826251      0.020823     -0.028552
O	      2.27817      4.30977     -4.33661         0.558261      0.013353      0.556431
O	      4.36200      2.09959      0.02287        -0.199008     -0.326579     -0.466061
O	      4.27168      0.03746     -2.06448        -0.092666      0.533626      0.572043
O	      2.22314      4.31424     -0.13987         0.108026     -0.184037     -1.660238
O	      4.42632      2.29732     -4.35451         0.530363      0.463711      0.339396
O	      2.08018      6.40536     -2.22090        -0.267371     -0.815130     -0.065804
