# total energy = -102.86027753 eV
 
CRYSTAL
PRIMVEC
2.146165 4.278278 2.128745 
4.279908 -2.124359 -2.145985 
0.011493 4.307633 -4.327284 
PRIMCOORD
16 1
Li	      0.10056      0.15926     -0.01431         0.043439     -0.195891     -0.321369
Li	      2.18679      2.19469     -0.03207         0.167986      0.148018     -0.216600
Li	      4.43571      2.24262     -2.21588        -0.055196      0.314427     -0.034988
Li	      0.09670      2.12430     -2.21667        -0.108179      0.177210      0.117523
Ti	      2.15081      4.31674     -2.12160         0.688374     -0.896903      1.137245
Ti	      4.48387      4.55762     -4.58318         0.033424      0.317385      0.968598
Ni	      2.27057      0.14356     -2.15640        -0.633191      0.011046     -0.802065
Ni	      2.27651      2.36208     -4.38483        -0.175497     -1.058686      0.235711
O	      2.17493      2.29636     -2.27104         0.350150      1.520887     -0.108590
O	      4.31161      4.47937     -2.28285        -1.123432      0.055884      0.010463
O	      2.32306      4.39469     -4.42206         0.754549     -0.046138      0.728792
O	      4.44795      2.14096      0.02332        -0.292183     -0.381063     -0.620045
O	      4.35585      0.03820     -2.10515        -0.189918      0.788428      0.718469
O	      2.26694      4.39925     -0.14263         0.161618     -0.272191     -2.198341
O	      4.51353      2.34259     -4.44031         0.703081      0.645081      0.503816
O	      2.12117      6.53157     -2.26465        -0.325024     -1.127494     -0.118618
