# total energy = -91.39563444 eV
 
CRYSTAL
PRIMVEC
-0.000909 2.080369 2.084200 
6.101960 0.041158 -2.126438 
-1.994969 6.333525 -4.255106 
PRIMCOORD
16 1
Li	      2.08821      2.15751     -0.08397         0.009962     -0.053486      0.062780
Li	      3.92137      2.04539     -2.03123         0.032582     -0.028214      0.009516
Li	      2.01729      4.17513     -2.07177         0.008109      0.039894     -0.070991
Li	      0.13903      6.30929     -2.16027        -0.010361      0.020571     -0.013174
Mn	      0.06910      0.04627     -0.05495         0.071832     -0.012153      0.024061
Mn	      4.08736      4.24560     -4.25965        -0.038258      0.029827     -0.022142
Ni	      0.08020      4.21516     -0.05559        -0.111121     -0.067865      0.062787
Ni	      1.97564      6.36051     -4.29398        -0.088074      0.009966     -0.013440
O	     -0.10704      4.16341     -2.08788        -0.039399      0.105443     -0.099864
O	     -0.03691      2.04469      0.03234         0.002765     -0.010344      0.002151
O	      4.11902      6.30561     -4.23788         0.075399     -0.055645      0.052860
O	      4.09585      4.38859     -2.32184        -0.068000      0.007824     -0.005966
O	     -0.06033      6.32124     -4.25669        -0.138302      0.022057     -0.003734
O	      4.22022      2.05983      0.01395         0.008881      0.117692     -0.112407
O	      2.16747      6.40683     -2.26281         0.092148     -0.119104      0.133057
O	      2.00353      2.13966     -2.13513         0.191836     -0.006463     -0.005492
