# total energy = -102.51979395 eV
 
CRYSTAL
PRIMVEC
2.156583 4.299047 2.139079 
4.300685 -2.134671 -2.156403 
0.011549 4.328544 -4.348290 
PRIMCOORD
16 1
Li	      0.11201      0.18168     -0.00406         0.042843     -0.236842     -0.378346
Li	      2.20808      2.21605     -0.03238         0.195454      0.157216     -0.244456
Li	      4.47888      2.26445     -2.23744        -0.056956      0.365320     -0.040498
Li	      0.11851      2.13461     -2.24872        -0.123168      0.213660      0.133118
Ti	      2.17174      4.35875     -2.14225         0.764188     -0.996324      1.239934
Ti	      4.52751      4.60197     -4.62778         0.056512      0.362585      1.155008
Ni	      2.30313      0.16583     -2.16699        -0.697226      0.020119     -0.918063
Ni	      2.30913      2.40594     -4.41713        -0.197826     -1.190694      0.259242
O	      2.19609      2.31872     -2.29315         0.394851      1.655611     -0.148167
O	      4.35357      4.52297     -2.30507        -1.251349      0.065377      0.033487
O	      2.34567      4.43746     -4.46509         0.837638     -0.077485      0.806930
O	      4.49124      2.16180      0.02355        -0.331037     -0.403498     -0.691901
O	      4.39825      0.03857     -2.12564        -0.236015      0.914491      0.787438
O	      2.28900      4.44207     -0.14402         0.175620     -0.306902     -2.431759
O	      4.55746      2.36539     -4.48352         0.788361      0.722653      0.584967
O	      2.14181      6.59514     -2.28669        -0.361893     -1.265288     -0.146933
