# total energy = -102.13938548 eV
 
CRYSTAL
PRIMVEC
2.167001 4.319815 2.149413 
4.321461 -2.144984 -2.166820 
0.011604 4.349455 -4.369297 
PRIMCOORD
16 1
Li	      0.12356      0.20432      0.00628         0.038622     -0.282561     -0.437640
Li	      2.22946      2.23752     -0.03269         0.219607      0.164337     -0.272961
Li	      4.52226      2.28638     -2.25911        -0.060154      0.412929     -0.048549
Li	      0.14054      2.14493     -2.28096        -0.133441      0.251497      0.151690
Ti	      2.19277      4.40096     -2.16300         0.825561     -1.091462      1.331516
Ti	      4.57135      4.64655     -4.67260         0.086228      0.411330      1.338362
Ni	      2.33590      0.18830     -2.17760        -0.750181      0.040826     -1.026310
Ni	      2.34196      2.45011     -4.44952        -0.210756     -1.313676      0.283373
O	      2.21736      2.34117     -2.31536         0.434543      1.774528     -0.188295
O	      4.39574      4.56677     -2.32739        -1.367592      0.074050      0.047610
O	      2.36839      4.48044     -4.50834         0.914899     -0.108083      0.877654
O	      4.53473      2.18273      0.02377        -0.371286     -0.433399     -0.761965
O	      4.44084      0.03895     -2.14623        -0.276241      1.041664      0.858711
O	      2.31117      4.48509     -0.14541         0.178113     -0.345732     -2.645031
O	      4.60160      2.38829     -4.52694         0.873452      0.798714      0.670803
O	      2.16255      6.65901     -2.30884        -0.401373     -1.394961     -0.178968
