# total energy = -101.72152961 eV
 
CRYSTAL
PRIMVEC
2.177420 4.340583 2.159747 
4.342237 -2.155296 -2.177238 
0.011660 4.370366 -4.390303 
PRIMCOORD
16 1
Li	      0.13522      0.22715      0.01673         0.035274     -0.323782     -0.499190
Li	      2.25095      2.25908     -0.03300         0.247002      0.169102     -0.299443
Li	      4.56585      2.30842     -2.28089        -0.058038      0.458645     -0.052701
Li	      0.16277      2.15524     -2.31342        -0.145540      0.293093      0.169419
Ti	      2.21391      4.44338     -2.18384         0.876527     -1.180265      1.412665
Ti	      4.61541      4.69133     -4.71764         0.122149      0.461004      1.517861
Ni	      2.36889      0.21099     -2.18821        -0.799324      0.059886     -1.139509
Ni	      2.37501      2.49459     -4.48203        -0.226930     -1.429014      0.297818
O	      2.23873      2.36374     -2.33767         0.467932      1.879091     -0.227872
O	      4.43810      4.61079     -2.34983        -1.468929      0.077419      0.060062
O	      2.39121      4.52362     -4.55179         0.986089     -0.138066      0.950524
O	      4.57844      2.20377      0.02401        -0.407002     -0.461492     -0.832782
O	      4.48365      0.03932     -2.16692        -0.318023      1.167307      0.925533
O	      2.33345      4.52832     -0.14681         0.175975     -0.386100     -2.834449
O	      4.64595      2.41132     -4.57057         0.956315      0.868343      0.766955
O	      2.18340      6.72319     -2.33109        -0.443476     -1.515169     -0.214890
