# total energy = -101.26876882 eV
 
CRYSTAL
PRIMVEC
2.187838 4.361352 2.170080 
4.363013 -2.165609 -2.187655 
0.011716 4.391276 -4.411309 
PRIMCOORD
16 1
Li	      0.14699      0.25019      0.02727         0.027094     -0.370231     -0.569435
Li	      2.27254      2.28075     -0.03332         0.268117      0.171589     -0.324997
Li	      4.60965      2.33056     -2.30277        -0.054573      0.504662     -0.060633
Li	      0.18521      2.16555     -2.34607        -0.151684      0.338340      0.188483
Ti	      2.23515      4.48600     -2.20480         0.916704     -1.264228      1.484312
Ti	      4.65969      4.73633     -4.76289         0.165748      0.513406      1.695856
Ni	      2.40208      0.23388     -2.19881        -0.841675      0.080249     -1.247702
Ni	      2.40826      2.53938     -4.51464        -0.242879     -1.533722      0.314942
O	      2.26021      2.38641     -2.36009         0.501082      1.966256     -0.269729
O	      4.48068      4.65502     -2.37237        -1.563494      0.073854      0.074702
O	      2.41415      4.56702     -4.59545         1.051871     -0.167539      1.021823
O	      4.62236      2.22491      0.02423        -0.444609     -0.488660     -0.903943
O	      4.52666      0.03970     -2.18771        -0.353358      1.298846      0.991756
O	      2.35583      4.57176     -0.14822         0.166185     -0.422371     -3.008137
O	      4.69052      2.43445     -4.61442         1.043952      0.930851      0.861237
O	      2.20434      6.78768     -2.35345        -0.488481     -1.631303     -0.248536
