# total energy = -99.96378023 eV
 
CRYSTAL
PRIMVEC
1.971956 3.981389 1.946102 
3.946380 -1.988359 -1.953382 
-0.005674 4.017685 -3.958761 
PRIMCOORD
16 1
Li	      0.01940      3.81873     -3.75703        -0.491886      0.486536     -0.588478
Li	      1.87252      1.89809     -0.00922        -0.370775     -0.005499      0.682816
Li	      3.71897      3.79071     -0.02047         0.417536     -0.305073      0.744420
Li	      1.86959      3.80492     -1.88957        -0.200099      0.318857      0.068365
Ti	      0.03448      1.80833     -1.78329        -3.307434     -1.713675      1.422224
Ti	      3.70472      5.80110     -1.99463         1.775953      1.567373     -2.963806
Ni	      3.70900      1.92904     -1.82965         1.713274      0.037365      0.873141
Ni	      3.77912      3.79125     -3.80428         1.255222      1.395005     -2.659877
O	      1.79657      1.91833     -1.95542         0.068683     -0.669542      1.001488
O	      3.84377      3.84107     -1.92616         0.682980      1.223974      1.442168
O	      1.91145      3.68947     -3.78306        -2.289492      0.644179     -0.748106
O	      3.70893      1.84579      0.04219         0.918991     -0.355944      2.445773
O	      3.78482      0.05797     -1.91529         0.481588     -2.911447      0.320083
O	      1.82787      3.91956      0.00499         0.307233      0.719407      1.275306
O	      3.64447      1.87908     -3.70771         1.756144     -1.904640     -2.856555
O	      1.94252      5.69102     -1.82265        -2.717919      1.473123     -0.458962
