# total energy = -100.77309154 eV
 
CRYSTAL
PRIMVEC
1.982335 4.002344 1.956345 
3.967151 -1.998824 -1.963663 
-0.005704 4.038830 -3.979597 
PRIMCOORD
16 1
Li	      0.01960      3.85904     -3.79668        -0.417379      0.426049     -0.529520
Li	      1.89228      1.91812     -0.00932        -0.312194      0.005627      0.582234
Li	      3.75822      3.83072     -0.02068         0.345908     -0.283591      0.648680
Li	      1.88932      3.84508     -1.90952        -0.158306      0.281336      0.056741
Ti	      0.03485      1.82742     -1.80211        -2.798149     -1.578205      1.250220
Ti	      3.74381      5.86233     -2.01568         1.455546      1.407648     -2.592032
Ni	      3.74814      1.94940     -1.84896         1.466703      0.035883      0.776794
Ni	      3.81900      3.83126     -3.84443         1.033853      1.170357     -2.287776
O	      1.81553      1.93858     -1.97606        -0.031175     -0.589964      0.916428
O	      3.88434      3.88161     -1.94649         0.571890      1.116874      1.233998
O	      1.93162      3.72841     -3.82299        -1.994360      0.521135     -0.643538
O	      3.74808      1.86528      0.04264         0.795758     -0.288210      2.117525
O	      3.82476      0.05859     -1.93550         0.437783     -2.536600      0.255122
O	      1.84717      3.96093      0.00503         0.318901      0.681789      1.115410
O	      3.68294      1.89891     -3.74685         1.546468     -1.676698     -2.496972
O	      1.96302      5.75109     -1.84189        -2.261247      1.306573     -0.403314
