# total energy = -101.47245899 eV
 
CRYSTAL
PRIMVEC
1.992714 4.023298 1.966587 
3.987921 -2.009289 -1.973944 
-0.005734 4.059976 -4.000432 
PRIMCOORD
16 1
Li	      0.01981      3.89955     -3.83654        -0.350162      0.371593     -0.471778
Li	      1.91214      1.93826     -0.00941        -0.260044      0.014941      0.490469
Li	      3.79768      3.87093     -0.02090         0.287771     -0.264699      0.556613
Li	      1.90916      3.88545     -1.92956        -0.126780      0.241098      0.049908
Ti	      0.03522      1.84660     -1.82103        -2.336012     -1.440844      1.089215
Ti	      3.78312      5.92388     -2.03684         1.173229      1.259525     -2.242570
Ni	      3.78749      1.96987     -1.86837         1.245746      0.033959      0.684002
Ni	      3.85910      3.87148     -3.88480         0.831399      0.970686     -1.943563
O	      1.83459      1.95893     -1.99680        -0.109396     -0.508648      0.822567
O	      3.92512      3.92236     -1.96693         0.467090      1.004881      1.046358
O	      1.95190      3.76756     -3.86312        -1.719099      0.405671     -0.549135
O	      3.78743      1.88485      0.04309         0.685601     -0.221653      1.820366
O	      3.86492      0.05920     -1.95582         0.395084     -2.184568      0.185035
O	      1.86656      4.00251      0.00509         0.324611      0.644697      0.967350
O	      3.72160      1.91885     -3.78618         1.339505     -1.463565     -2.157427
O	      1.98363      5.81147     -1.86122        -1.848543      1.136928     -0.347411
