# total energy = -102.06731880 eV
 
CRYSTAL
PRIMVEC
2.003093 4.044253 1.976830 
4.008692 -2.019754 -1.984225 
-0.005764 4.081122 -4.021268 
PRIMCOORD
16 1
Li	      0.02001      3.94028     -3.87661        -0.287016      0.316016     -0.412593
Li	      1.93212      1.95850     -0.00951        -0.215660      0.017274      0.408147
Li	      3.83734      3.91136     -0.02112         0.234792     -0.234993      0.468611
Li	      1.92910      3.92603     -1.94972        -0.099545      0.205798      0.043651
Ti	      0.03558      1.86589     -1.84005        -1.916646     -1.303079      0.938868
Ti	      3.82263      5.98574     -2.05812         0.924741      1.120679     -1.912735
Ni	      3.82705      1.99043     -1.88788         1.035308      0.033378      0.599018
Ni	      3.89940      3.91191     -3.92537         0.663477      0.787187     -1.625325
O	      1.85375      1.97939     -2.01766        -0.166105     -0.439089      0.723506
O	      3.96611      3.96332     -1.98747         0.380826      0.888740      0.873732
O	      1.97228      3.80690     -3.90347        -1.463901      0.300657     -0.460961
O	      3.82698      1.90454      0.04354         0.578043     -0.164592      1.548056
O	      3.90528      0.05982     -1.97624         0.346042     -1.859458      0.119294
O	      1.88605      4.04431      0.00514         0.318407      0.604386      0.822994
O	      3.76047      1.93888     -3.82572         1.144818     -1.254205     -1.838663
O	      2.00435      5.87216     -1.88066        -1.477581      0.981303     -0.295599
