# total energy = -103.30762959 eV
 
CRYSTAL
PRIMVEC
2.034229 4.107117 2.007558 
4.071003 -2.051149 -2.015068 
-0.005853 4.144559 -4.083775 
PRIMCOORD
16 1
Li	      0.02064      4.06372     -3.99806        -0.135068      0.173667     -0.238287
Li	      1.99265      2.01986     -0.00981        -0.101590      0.022043      0.197888
Li	      3.95756      4.03390     -0.02178         0.098609     -0.146053      0.245034
Li	      1.98954      4.04903     -2.01080        -0.032933      0.109434      0.023920
Ti	      0.03670      1.92435     -1.89770        -0.888500     -0.877091      0.550669
Ti	      3.94239      6.17327     -2.12260         0.363498      0.745686     -1.046877
Ni	      3.94695      2.05280     -1.94703         0.502681      0.030906      0.353913
Ni	      4.02157      4.03447     -4.04835         0.281395      0.349770     -0.829751
O	      1.91183      2.04140     -2.08087        -0.253976     -0.237596      0.417055
O	      4.09037      4.08749     -2.04974         0.191775      0.549234      0.459939
O	      2.03408      3.92617     -4.02577        -0.802617      0.006257     -0.237761
O	      3.94688      1.96421      0.04490         0.302143     -0.027234      0.880921
O	      4.02763      0.06169     -2.03816         0.199658     -1.006069     -0.061977
O	      1.94514      4.17102      0.00530         0.267388      0.489489      0.437412
O	      3.87829      1.99963     -3.94558         0.583562     -0.714883     -1.008052
O	      2.06714      6.05613     -1.93958        -0.576025      0.532439     -0.144047
