# total energy = -103.55828353 eV
 
CRYSTAL
PRIMVEC
2.044607 4.128072 2.017800 
4.091773 -2.061614 -2.025349 
-0.005883 4.165705 -4.104610 
PRIMCOORD
16 1
Li	      0.02085      4.10530     -4.03896        -0.091287      0.126744     -0.182030
Li	      2.01303      2.04052     -0.00991        -0.073522      0.018248      0.141639
Li	      3.99804      4.07517     -0.02201         0.064748     -0.110361      0.181939
Li	      2.00989      4.09045     -2.03137        -0.020215      0.080478      0.017244
Ti	      0.03707      1.94403     -1.91711        -0.610962     -0.732877      0.441839
Ti	      3.98272      6.23643     -2.14431         0.228301      0.628152     -0.798100
Ni	      3.98732      2.07380     -1.96695         0.354732      0.032612      0.276655
Ni	      4.06271      4.07575     -4.08977         0.193211      0.238846     -0.613547
O	      1.93138      2.06228     -2.10216        -0.256270     -0.174316      0.306537
O	      4.13221      4.12931     -2.07071         0.146647      0.439479      0.354563
O	      2.05488      3.96634     -4.06695        -0.616062     -0.082021     -0.173459
O	      3.98726      1.98430      0.04536         0.216826      0.006629      0.702052
O	      4.06883      0.06232     -2.05901         0.152737     -0.759102     -0.118104
O	      1.96504      4.21369      0.00536         0.240216      0.446050      0.323006
O	      3.91796      2.02009     -3.98595         0.412495     -0.552687     -0.760960
O	      2.08829      6.11809     -1.95942        -0.341595      0.394128     -0.099274
