# total energy = -103.70869044 eV
 
CRYSTAL
PRIMVEC
2.106880 4.253800 2.079256 
4.216396 -2.124405 -2.087034 
-0.006062 4.292579 -4.229624 
PRIMCOORD
16 1
Li	      0.02821      0.06660     -0.05912         0.121304     -0.105442      0.158116
Li	      2.13752      2.16671     -0.01052         0.045556     -0.026123     -0.101611
Li	      2.13841      0.07338     -2.10262        -0.083718      0.112235     -0.135831
Li	      2.13418      4.34341     -2.15699        -0.006763     -0.068277     -0.008832
Ti	      0.03937      2.06426     -2.03567         0.534420      0.163710     -0.035878
Ti	      2.12214      2.36830     -4.35617        -0.220712     -0.068778      0.288403
Ni	      4.23391      2.20204     -2.08858        -0.297389      0.017991     -0.119153
Ni	      4.31395      4.32779     -4.34268        -0.042711     -0.184179      0.326678
O	      2.05082      2.18982     -2.23216        -0.089985      0.147653     -0.345693
O	      4.38776      4.38467     -2.19876         0.045681     -0.197184     -0.025693
O	      2.18196      4.21162     -4.31846         0.277297     -0.515308      0.139821
O	      4.23383      2.10702      0.04817        -0.189218      0.182389     -0.008211
O	      4.32046      0.06618     -2.18635        -0.146232      0.433550     -0.392421
O	      2.08656      4.47427      0.00569        -0.029011      0.182978     -0.280754
O	      4.16026      2.14501     -4.23244        -0.480248      0.276186      0.427790
O	      2.21743      6.49644     -2.08060         0.561730     -0.351401      0.113269
