# total energy = -103.34062338 eV
 
CRYSTAL
PRIMVEC
2.127637 4.295709 2.099742 
4.257937 -2.145335 -2.107596 
-0.006122 4.334870 -4.271295 
PRIMCOORD
16 1
Li	      0.02870      0.11062     -0.10237         0.181319     -0.170074      0.274176
Li	      2.17985      2.20962     -0.01073         0.067757     -0.045737     -0.152909
Li	      2.20172      0.11716     -2.12357        -0.114429      0.191811     -0.221770
Li	      2.17644      4.42941     -2.19970        -0.025100     -0.107964     -0.014078
Ti	      0.04014      2.10513     -2.07598         0.781341      0.473561     -0.136290
Ti	      2.18512      2.45751     -4.42174        -0.278630     -0.318129      0.506652
Ni	      4.31774      2.24565     -2.12994        -0.441387      0.011216     -0.237119
Ni	      4.39938      4.41349     -4.42867        -0.034748     -0.243517      0.522548
O	      2.09143      2.23318     -2.27636         0.016146      0.239281     -0.551288
O	      4.47464      4.47149     -2.24230         0.054937     -0.386637     -0.073387
O	      2.22517      4.29502     -4.40397         0.504405     -0.627116      0.231876
O	      4.31767      2.14874      0.04912        -0.302201      0.226130     -0.130560
O	      4.40601      0.06749     -2.22964        -0.254297      0.741996     -0.448701
O	      2.12788      4.56287      0.00580        -0.139982      0.077531     -0.461648
O	      4.24263      2.18749     -4.31625        -0.717817      0.510752      0.744861
O	      2.26134      6.62508     -2.12179         0.702687     -0.573104      0.147638
