# total energy = -103.09372559 eV
 
CRYSTAL
PRIMVEC
2.138016 4.316664 2.109984 
4.278707 -2.155800 -2.117877 
-0.006152 4.356016 -4.292131 
PRIMCOORD
16 1
Li	      0.02895      0.13295     -0.12431         0.210907     -0.204425      0.337876
Li	      2.20117      2.23123     -0.01083         0.075233     -0.056073     -0.175355
Li	      2.23368      0.13936     -2.13404        -0.128154      0.231854     -0.260532
Li	      2.19773      4.47273     -2.22122        -0.036696     -0.125843     -0.017103
Ti	      0.04054      2.12572     -2.09628         0.889268      0.630070     -0.176278
Ti	      2.21692      2.50260     -4.45470        -0.297718     -0.448340      0.590481
Ni	      4.35997      2.26761     -2.15077        -0.497279      0.006581     -0.293745
Ni	      4.44240      4.45665     -4.47198        -0.019306     -0.263573      0.599791
O	      2.11188      2.25502     -2.29862         0.073003      0.286395     -0.644192
O	      4.51840      4.51522     -2.26423         0.060523     -0.479265     -0.089458
O	      2.24693      4.33702     -4.44704         0.607128     -0.678057      0.277133
O	      4.35990      2.16975      0.04960        -0.358584      0.249925     -0.176892
O	      4.44910      0.06815     -2.25144        -0.301879      0.884594     -0.471493
O	      2.14869      4.60750      0.00586        -0.202868      0.024698     -0.546549
O	      4.28413      2.20888     -4.35846        -0.824314      0.621254      0.889397
O	      2.28346      6.68987     -2.14255         0.750735     -0.679795      0.156920
