# total energy = -102.80796344 eV
 
CRYSTAL
PRIMVEC
2.148395 4.337619 2.120227 
4.299478 -2.166265 -2.128158 
-0.006182 4.377162 -4.312966 
PRIMCOORD
16 1
Li	      0.02920      0.15550     -0.14645         0.240881     -0.233029      0.398617
Li	      2.22259      2.25294     -0.01094         0.085832     -0.065162     -0.192651
Li	      2.26585      0.16177     -2.14453        -0.138973      0.274341     -0.305068
Li	      2.21912      4.51626     -2.24283        -0.048464     -0.144168     -0.020127
Ti	      0.04093      2.14640     -2.11668         0.990046      0.786236     -0.211044
Ti	      2.24893      2.54802     -4.48776        -0.312664     -0.583490      0.658684
Ni	      4.40241      2.28967     -2.17170        -0.556889      0.000752     -0.344683
Ni	      4.48564      4.50003     -4.51551        -0.001802     -0.273812      0.674360
O	      2.13244      2.27697     -2.32099         0.131106      0.327808     -0.736714
O	      4.56237      4.55917     -2.28627         0.069089     -0.562208     -0.096272
O	      2.26880      4.37923     -4.49032         0.700422     -0.721116      0.319402
O	      4.40233      2.19087      0.05008        -0.408822      0.274215     -0.214693
O	      4.49240      0.06881     -2.27335        -0.350759      1.014240     -0.487521
O	      2.16960      4.65233      0.00591        -0.265419     -0.032132     -0.635599
O	      4.32582      2.23038     -4.40088        -0.921184      0.723446      1.029660
O	      2.30568      6.75498     -2.16340         0.787600     -0.785921      0.163651
