# total energy = -92.30038936 eV
 
CRYSTAL
PRIMVEC
-0.000118 2.062812 2.063275 
8.217244 -4.213788 4.213652 
2.044549 2.118921 -4.182393 
PRIMCOORD
16 1
Li	      2.18435      1.99184      0.07411        -0.020600      0.002219     -0.010825
Li	      4.08500      2.01397     -2.01597        -0.028228      0.012561     -0.011878
Li	      3.96223     -2.01700      2.00986         0.029540      0.011733     -0.003840
Li	      8.16888     -0.02435      0.02455        -0.009332     -0.000524      0.000228
Mn	      0.09129      0.02625     -0.02636         0.078916     -0.021824      0.012774
Mn	      6.14234     -0.03184      2.09248        -0.024733      0.000398      0.003235
Ni	      4.04673      0.03049     -0.03232        -0.052423     -0.045684      0.055299
Ni	      8.22900     -2.10963      2.10785         0.028321     -0.080025      0.082752
O	      2.01551      2.26515     -2.26664         0.123932      0.000071      0.000189
O	      6.18617     -0.15957      0.15795         0.064063     -0.016359      0.012795
O	      6.18751     -2.00147      1.99865        -0.116647      0.030907     -0.029394
O	      8.19369     -0.06598      2.12744        -0.046771      0.121712     -0.121347
O	      8.20541     -2.18090      4.24306         0.003073     -0.053555      0.058415
O	      1.93850      0.01164     -0.01207        -0.114254      0.001633      0.004939
O	      4.09599      2.01425      0.04833         0.017285      0.114670     -0.122988
O	      4.25865     -0.00283      2.06363         0.067857     -0.077932      0.069646
