# total energy = -102.13156115 eV
 
CRYSTAL
PRIMVEC
2.169152 4.379528 2.140712 
4.341018 -2.187195 -2.148720 
-0.006241 4.419453 -4.354637 
PRIMCOORD
16 1
Li	      0.02971      0.20122     -0.19137         0.294932     -0.294790      0.522664
Li	      2.26575      2.29669     -0.01116         0.093196     -0.085034     -0.225418
Li	      2.33080      0.20723     -2.16548        -0.161111      0.354543     -0.386953
Li	      2.26221      4.60396     -2.28638        -0.083482     -0.175769     -0.024447
Ti	      0.04173      2.18808     -2.15778         1.174859      1.103392     -0.268493
Ti	      2.31355      2.63981     -4.55421        -0.333953     -0.864498      0.747197
Ni	      4.48789      2.33414     -2.21387        -0.639781     -0.010171     -0.442590
Ni	      4.57274      4.58741     -4.60318         0.056117     -0.276411      0.782886
O	      2.17385      2.32118     -2.36606         0.255545      0.406409     -0.909333
O	      4.65096      4.64769     -2.33066         0.080558     -0.733548     -0.086451
O	      2.31285      4.46426     -4.57751         0.875331     -0.804561      0.409999
O	      4.48781      2.23341      0.05105        -0.502949      0.333470     -0.253509
O	      4.57963      0.07015     -2.31749        -0.447555      1.263151     -0.504961
O	      2.21173      4.74267      0.00603        -0.397543     -0.156238     -0.807445
O	      4.40982      2.27369     -4.48633        -1.084738      0.919640      1.282548
O	      2.35045      6.88614     -2.20541         0.820573     -0.979584      0.164306
