# total energy = -98.48557379 eV
 
CRYSTAL
PRIMVEC
-1.981770 4.068765 -1.983375 
1.935090 4.021271 1.936576 
5.875509 -0.024076 -1.960083 
PRIMCOORD
16 1
Li	      1.90151      3.82647      1.77791        -0.286411     -0.056739      0.616773
Li	      1.88162      1.89956     -0.04701        -0.273033     -0.563977      0.480811
Li	      3.66390      3.81888      0.01754         0.889066     -0.086948      0.940352
Li	      3.70117      1.90132     -1.85992         0.204031     -0.613614     -0.180730
Ti	      1.79924      3.84168     -1.83565        -1.203606     -0.729411     -4.112192
Ti	      3.77088      5.75469     -1.97611        -0.453373      4.330878     -1.078811
Ni	      5.52795      3.81848     -1.85099         1.997012     -0.524738     -0.823929
Ni	      1.79536      5.75459     -0.00139        -1.139315      2.379368      2.397718
O	      1.89887      5.63236     -1.89294        -2.814110      4.394996     -1.197511
O	      1.82282      3.87039     -0.08972         0.206678     -1.598194      5.058936
O	      1.85005      2.05226     -1.94157         0.073813     -4.520056      0.503520
O	      3.64307      3.96181     -1.86648         1.343019     -2.958788     -0.653330
O	      5.49320      5.69049     -1.88235         5.015570      2.395502     -0.477097
O	      0.04955      3.81575     -1.86354        -5.724667      0.189994     -0.954877
O	      5.54562      3.67941      0.03659         1.113572      0.468120      1.296173
O	      5.55916      1.94540     -1.81611         1.051754     -2.506394     -1.815807
