# total energy = -99.63103982 eV
 
CRYSTAL
PRIMVEC
-1.992200 4.090179 -1.993813 
1.945275 4.042436 1.946768 
5.906433 -0.024203 -1.970399 
PRIMCOORD
16 1
Li	      1.92157      3.86685      1.79667        -0.260133     -0.047873      0.514270
Li	      1.90148      1.91961     -0.04751        -0.241613     -0.483097      0.409585
Li	      3.70256      3.85918      0.01773         0.787699     -0.074104      0.817572
Li	      3.74023      1.92138     -1.87955         0.182623     -0.533492     -0.158264
Ti	      1.81823      3.88223     -1.85502        -1.080844     -0.628839     -3.513770
Ti	      3.81068      5.81543     -1.99697        -0.361681      3.726366     -0.940126
Ni	      5.58629      3.85878     -1.87052         1.708377     -0.460985     -0.646010
Ni	      1.81431      5.81532     -0.00141        -1.012934      2.032183      2.055700
O	      1.91892      5.69180     -1.91291        -2.402310      3.758520     -1.004582
O	      1.84206      3.91124     -0.09066         0.207194     -1.376179      4.341124
O	      1.86958      2.07392     -1.96206         0.093262     -3.874376      0.479841
O	      3.68152      4.00362     -1.88617         1.125310     -2.525219     -0.565274
O	      5.55118      5.75055     -1.90221         4.275281      2.071794     -0.428944
O	      0.05007      3.85602     -1.88321        -4.920603      0.179817     -0.864334
O	      5.60415      3.71824      0.03697         0.980565      0.412305      1.097246
O	      5.61783      1.96593     -1.83528         0.919805     -2.176823     -1.594034
