# total energy = -101.45013290 eV
 
CRYSTAL
PRIMVEC
-2.013061 4.133008 -2.014691 
1.965644 4.084765 1.967153 
5.968280 -0.024457 -1.991032 
PRIMCOORD
16 1
Li	      1.96203      3.94826      1.83449        -0.200897     -0.037894      0.338999
Li	      1.94151      1.96002     -0.04851        -0.180444     -0.332334      0.284976
Li	      3.78052      3.94042      0.01810         0.587035     -0.051854      0.589831
Li	      3.81897      1.96183     -1.91912         0.131042     -0.384321     -0.118186
Ti	      1.85651      3.96395     -1.89407        -0.842173     -0.447852     -2.453578
Ti	      3.89091      5.93785     -2.03901        -0.202629      2.652334     -0.698956
Ni	      5.70389      3.94001     -1.90990         1.209721     -0.342670     -0.362639
Ni	      1.85250      5.93775     -0.00143        -0.771870      1.420490      1.453114
O	      1.95932      5.81162     -1.95319        -1.671246      2.633386     -0.687669
O	      1.88084      3.99358     -0.09258         0.201123     -0.988847      3.060721
O	      1.90894      2.11758     -2.00337         0.114045     -2.729029      0.402425
O	      3.75902      4.08791     -1.92588         0.740617     -1.754559     -0.404229
O	      5.66804      5.87161     -1.94226         2.959617      1.503321     -0.331423
O	      0.05112      3.93719     -1.92286        -3.479635      0.164326     -0.687416
O	      5.72213      3.79652      0.03775         0.727583      0.294258      0.768555
O	      5.73610      2.00732     -1.87392         0.678110     -1.598755     -1.154524
