# total energy = -102.14527286 eV
 
CRYSTAL
PRIMVEC
-2.023491 4.154423 -2.025130 
1.975829 4.105930 1.977346 
5.999204 -0.024583 -2.001348 
PRIMCOORD
16 1
Li	      1.98241      3.98928      1.85355        -0.172166     -0.036152      0.268281
Li	      1.96168      1.98039     -0.04902        -0.148775     -0.268326      0.232610
Li	      3.81979      3.98136      0.01829         0.491790     -0.039423      0.489771
Li	      3.85864      1.98221     -1.93906         0.106109     -0.319065     -0.101929
Ti	      1.87579      4.00514     -1.91375        -0.725804     -0.367321     -1.985602
Ti	      3.93133      5.99954     -2.06019        -0.134990      2.177246     -0.593946
Ni	      5.76316      3.98095     -1.92975         0.987874     -0.287652     -0.257950
Ni	      1.87175      5.99944     -0.00145        -0.655584      1.158824      1.187554
O	      1.97967      5.87200     -1.97348        -1.353560      2.140672     -0.560041
O	      1.90039      4.03507     -0.09354         0.194384     -0.821826      2.482242
O	      1.92878      2.13958     -2.02418         0.119470     -2.224843      0.356331
O	      3.79808      4.13038     -1.94589         0.570934     -1.422647     -0.332451
O	      5.72693      5.93262     -1.96244         2.376467      1.254215     -0.282324
O	      0.05165      3.97810     -1.94283        -2.837041      0.156878     -0.599288
O	      5.78158      3.83597      0.03814         0.613433      0.238215      0.632176
O	      5.79569      2.02817     -1.89339         0.567460     -1.338796     -0.935432
