# total energy = -102.71163551 eV
 
CRYSTAL
PRIMVEC
-2.033922 4.175838 -2.035569 
1.986013 4.127094 1.987538 
6.030128 -0.024710 -2.011664 
PRIMCOORD
16 1
Li	      2.00290      4.03051      1.87271        -0.142680     -0.031529      0.203432
Li	      1.98195      2.00085     -0.04952        -0.120533     -0.210634      0.181690
Li	      3.85927      4.02251      0.01848         0.399553     -0.032126      0.395857
Li	      3.89852      2.00270     -1.95910         0.082305     -0.254949     -0.082770
Ti	      1.89518      4.04653     -1.93353        -0.611943     -0.293656     -1.556887
Ti	      3.97196      6.06156     -2.08149        -0.072858      1.737728     -0.498734
Ni	      5.82272      4.02209     -1.94969         0.787227     -0.235094     -0.171484
Ni	      1.89109      6.06144     -0.00146        -0.546631      0.912294      0.948245
O	      2.00013      5.93270     -1.99387        -1.063365      1.682578     -0.445761
O	      1.92003      4.07678     -0.09451         0.183401     -0.667161      1.952728
O	      1.94871      2.16170     -2.04510         0.118095     -1.754673      0.299848
O	      3.83734      4.17307     -1.96601         0.421503     -1.109437     -0.269070
O	      5.78613      5.99393     -1.98272         1.840247      1.024290     -0.235805
O	      0.05218      4.01922     -1.96291        -2.236374      0.147915     -0.514907
O	      5.84133      3.87561      0.03854         0.500864      0.184653      0.515568
O	      5.85560      2.04914     -1.91296         0.461189     -1.100199     -0.721950
