# total energy = -103.15765928 eV
 
CRYSTAL
PRIMVEC
-2.044352 4.197252 -2.046007 
1.996198 4.148259 1.997731 
6.061052 -0.024837 -2.021981 
PRIMCOORD
16 1
Li	      2.02350      4.07196      1.89197        -0.114840     -0.029778      0.144026
Li	      2.00233      2.02143     -0.05003        -0.092570     -0.155696      0.138639
Li	      3.89896      4.06387      0.01867         0.307454     -0.026141      0.305991
Li	      3.93861      2.02329     -1.97925         0.064897     -0.196829     -0.064412
Ti	      1.91467      4.08814     -1.95341        -0.500363     -0.225119     -1.165699
Ti	      4.01280      6.12389     -2.10289        -0.018747      1.332515     -0.411927
Ni	      5.88259      4.06345     -1.96974         0.596609     -0.183578     -0.098621
Ni	      1.91054      6.12377     -0.00148        -0.436905      0.693322      0.728219
O	      2.02070      5.99371     -2.01438        -0.796090      1.266719     -0.350297
O	      1.93977      4.11870     -0.09547         0.167698     -0.530172      1.460088
O	      1.96875      2.18393     -2.06613         0.118271     -1.321749      0.239842
O	      3.87679      4.21598     -1.98622         0.285634     -0.827319     -0.207233
O	      5.84562      6.05557     -2.00311         1.343500      0.808885     -0.190450
O	      0.05272      4.06054     -1.98310        -1.685426      0.141305     -0.429247
O	      5.90140      3.91546      0.03893         0.393749      0.126690      0.415122
O	      5.91581      2.07021     -1.93263         0.367129     -0.873054     -0.514043
