# total energy = -103.49155521 eV
 
CRYSTAL
PRIMVEC
-2.054782 4.218667 -2.056446 
2.006383 4.169423 2.007923 
6.091975 -0.024963 -2.032297 
PRIMCOORD
16 1
Li	      2.04420      4.11361      1.91132        -0.081612     -0.023168      0.096454
Li	      2.02282      2.04211     -0.05054        -0.064357     -0.105636      0.096983
Li	      3.93884      4.10545      0.01886         0.224832     -0.018257      0.226453
Li	      3.97890      2.04399     -1.99949         0.045380     -0.143694     -0.045197
Ti	      1.93426      4.12997     -1.97339        -0.389900     -0.164335     -0.808043
Ti	      4.05385      6.18653     -2.12440         0.030965      0.958275     -0.332416
Ni	      5.94278      4.10502     -1.98989         0.420614     -0.134664     -0.050796
Ni	      1.93008      6.18642     -0.00150        -0.332514      0.491463      0.528855
O	      2.04137      6.05502     -2.03498        -0.554641      0.885437     -0.266647
O	      1.95961      4.16083     -0.09645         0.151076     -0.405846      1.004995
O	      1.98889      2.20627     -2.08727         0.113275     -0.928605      0.173262
O	      3.91646      4.25911     -2.00654         0.156322     -0.569574     -0.151923
O	      5.90543      6.11752     -2.02360         0.892893      0.617571     -0.143103
O	      0.05326      4.10208     -2.00338        -1.174986      0.131749     -0.345875
O	      5.96177      3.95552      0.03933         0.293199      0.072705      0.326693
O	      5.97633      2.09138     -1.95240         0.269453     -0.663422     -0.309696
