# total energy = -90.23981817 eV
 
CRYSTAL
PRIMVEC
-0.000007 2.096502 -2.096493 
-0.000039 2.096507 2.096498 
16.270887 -0.000155 -0.000074 
PRIMCOORD
16 1
Li	      2.24741      2.09758      0.00014        -0.016562     -0.001893     -0.000648
Li	      4.14096      0.00086     -0.00013        -0.079496     -0.001385     -0.000459
Li	      8.10272      2.09689      2.09525         0.068262      0.000948     -0.001010
Li	     12.15153      2.09716      2.09494        -0.017848     -0.001251      0.001410
Mn	      0.04907      0.00078     -0.00030         0.152619      0.000155     -0.000231
Mn	     10.14535      2.09688     -0.00145        -0.039401      0.000720      0.000415
Ni	      6.14587      2.09716     -0.00065         0.198947      0.001011     -0.001209
Ni	     14.04322      2.09698     -0.00089        -0.056584      0.000491      0.000173
O	     14.28809      2.09696      2.09573         0.046080      0.000011      0.000576
O	     16.16221      2.09709     -0.00040         0.051077      0.001283     -0.000757
O	     10.15057      2.09687      2.09502         0.006270      0.000299      0.000756
O	     12.05295      2.09695     -0.00149        -0.105781     -0.000253      0.001978
O	      6.17946      0.00064     -0.00064        -0.030545      0.000554     -0.000555
O	      8.26704      2.09686     -0.00124         0.005780      0.000430      0.000584
O	      1.85444      0.00089      0.00001        -0.070368     -0.000898     -0.000792
O	      4.19896      2.09731     -0.00025        -0.112450     -0.000223     -0.000232
