# total energy = -103.75021081 eV
 
CRYSTAL
PRIMVEC
-2.106934 4.325739 -2.108640 
2.057306 4.275246 2.058886 
6.246594 -0.025597 -2.083878 
PRIMCOORD
16 1
Li	      0.09198      0.04982     -0.04931         0.084753     -0.011236     -0.065170
Li	      2.12680      2.14708     -0.05314         0.066910      0.081059     -0.044388
Li	      4.14132      4.31649      0.01983        -0.162130      0.004072     -0.107319
Li	      4.18344      2.14906     -2.10228        -0.042288      0.088876      0.035008
Ti	      2.03369      4.34227     -2.07484         0.132750      0.074286      0.533366
Ti	      4.26225      6.50455     -2.23361         0.203529     -0.517844     -0.024440
Ni	      0.00168      4.34164     -0.00830        -0.278130      0.078430      0.033548
Ni	      2.02930      6.50443     -0.00157         0.160700     -0.266136     -0.215404
O	      2.14631      6.36628     -2.13959         0.343491     -0.575877     -0.033517
O	      2.06035      4.37472     -0.10141         0.049731      0.044704     -0.787696
O	      2.09113      2.31968     -2.19457         0.075462      0.623670     -0.197115
O	      4.11778      4.47805     -2.10969        -0.305290      0.407046      0.070814
O	     -0.03760      6.45759     -0.04375        -0.885512     -0.150165      0.069388
O	      0.05600      4.31296     -2.10637         0.866376      0.091059      0.045462
O	      6.26824      4.15886      0.04135        -0.173063     -0.187654      0.068786
O	      0.03694      2.22449      0.03112        -0.137287      0.215711      0.618677
