# total energy = -103.56582178 eV
 
CRYSTAL
PRIMVEC
-2.117365 4.347154 -2.119079 
2.067491 4.296411 2.069078 
6.277518 -0.025724 -2.094194 
PRIMCOORD
16 1
Li	      0.10313      0.07159     -0.03956         0.120098     -0.008017     -0.084454
Li	      2.14792      2.16840     -0.05367         0.092099      0.108097     -0.065734
Li	      4.18242      4.35934      0.02002        -0.230706      0.005661     -0.161251
Li	      4.22496      2.17040     -2.12315        -0.056210      0.129667      0.048519
Ti	      2.05387      4.38537     -2.09543         0.231844      0.108495      0.724344
Ti	      4.30455      6.56911     -2.25578         0.225978     -0.748061      0.021687
Ni	      0.03276      4.38461     -0.01875        -0.393177      0.112293      0.023746
Ni	      2.04945      6.56900     -0.00159         0.250923     -0.374177     -0.321641
O	      2.16761      6.42947     -2.16083         0.476171     -0.791526     -0.012959
O	      2.08080      4.41814     -0.10242         0.033803      0.107327     -1.057417
O	      2.11188      2.34270     -2.21635         0.066036      0.859643     -0.273296
O	      4.15866      4.52250     -2.13063        -0.368111      0.548947      0.107613
O	     -0.00690      6.52156     -0.05455        -1.162523     -0.264610      0.105393
O	      0.05655      4.35576     -2.12728         1.185177      0.081603      0.117625
O	      6.33046      4.20013      0.04176        -0.260184     -0.239370      0.043637
O	      0.06839      2.24644      0.02106        -0.211216      0.364027      0.784186
