# total energy = -103.31584389 eV
 
CRYSTAL
PRIMVEC
-2.127795 4.368569 -2.129518 
2.077675 4.317575 2.079271 
6.308441 -0.025850 -2.104510 
PRIMCOORD
16 1
Li	      0.11438      0.09357     -0.02971         0.153034     -0.006115     -0.101999
Li	      2.16913      2.18981     -0.05420         0.115447      0.132569     -0.085436
Li	      4.22373      4.40239      0.02022        -0.295511      0.006100     -0.210049
Li	      4.26669      2.19183     -2.14411        -0.071861      0.164345      0.062642
Ti	      2.07416      4.42868     -2.11613         0.328545      0.139664      0.892295
Ti	      4.34706      6.63400     -2.27806         0.244933     -0.960503      0.065029
Ni	      0.06416      4.42778     -0.02930        -0.502281      0.145272      0.003867
Ni	      2.06969      6.63388     -0.00160         0.344021     -0.467002     -0.414576
O	      2.18902      6.49297     -2.18217         0.595136     -0.986135     -0.002875
O	      2.10135      4.46178     -0.10343         0.015443      0.164336     -1.306873
O	      2.13275      2.36584     -2.23824         0.053984      1.078528     -0.354507
O	      4.19972      4.56717     -2.15167        -0.424791      0.676077      0.143829
O	      0.02411      6.58584     -0.06545        -1.414420     -0.376353      0.141284
O	      0.05711      4.39878     -2.14829         1.486221      0.073483      0.187434
O	      6.39298      4.24162      0.04218        -0.344942     -0.288249      0.028626
O	      0.10014      2.26850      0.01090        -0.282959      0.503984      0.951309
