# total energy = -102.63797401 eV
 
CRYSTAL
PRIMVEC
-2.148656 4.411398 -2.150396 
2.098045 4.359905 2.099656 
6.370289 -0.026104 -2.125143 
PRIMCOORD
16 1
Li	      0.13720      0.13816     -0.00971         0.225909      0.004216     -0.124044
Li	      2.21187      2.23296     -0.05527         0.165422      0.175079     -0.113637
Li	      4.30696      4.48914      0.02062        -0.421500      0.007238     -0.299273
Li	      4.35076      2.23502     -2.18636        -0.097769      0.230715      0.091362
Ti	      2.11503      4.51594     -2.15782         0.516274      0.189863      1.169671
Ti	      4.43272      6.76471     -2.32295         0.272728     -1.335564      0.142281
Ni	      0.12788      4.51477     -0.05072        -0.708441      0.207448     -0.043274
Ni	      2.11047      6.76459     -0.00164         0.521892     -0.632446     -0.572230
O	      4.38081      2.20951     -0.07477         0.797063     -1.323130      0.008583
O	      2.14275      4.54969     -0.10547        -0.002180      0.252948     -1.741036
O	      2.17476      2.41246     -2.28234         0.041033      1.463405     -0.513562
O	      4.28247      4.65715     -2.19407        -0.517998      0.891303      0.199245
O	      0.08704      6.71535     -0.08758        -1.871151     -0.566398      0.208050
O	      0.05824      4.48546     -2.19061         2.014636      0.051956      0.322395
O	      6.51895      4.32520      0.04301        -0.514446     -0.381698      0.016561
O	      0.16457      2.31295     -0.00972        -0.421472      0.765065      1.248908
