# total energy = -102.21987874 eV
 
CRYSTAL
PRIMVEC
-2.159086 4.432812 -2.160834 
2.108229 4.381069 2.109848 
6.401213 -0.026231 -2.135459 
PRIMCOORD
16 1
Li	      0.14877      0.16077      0.00044         0.262346      0.005529     -0.133369
Li	      2.23340      2.25469     -0.05580         0.189363      0.191703     -0.126380
Li	      4.34887      4.53283      0.02082        -0.479773      0.005885     -0.338462
Li	      4.39311      2.25677     -2.20764        -0.107087      0.263778      0.106573
Ti	      2.13561      4.55989     -2.17882         0.606187      0.210649      1.279995
Ti	      4.47586      6.83055     -2.34556         0.281840     -1.500633      0.176903
Ni	      0.16020      4.55858     -0.06158        -0.806766      0.231833     -0.078808
Ni	      2.13101      6.83043     -0.00165         0.609840     -0.692840     -0.628063
O	      4.41296      2.25253     -0.08599         0.881913     -1.464209      0.001068
O	      2.16361      4.59397     -0.10650        -0.007424      0.290442     -1.923430
O	      2.19593      2.43594     -2.30455         0.034145      1.630242     -0.585283
O	      4.32416      4.70248     -2.21542        -0.553054      0.981286      0.225054
O	      0.11896      6.78058     -0.09880        -2.071009     -0.658411      0.235255
O	      0.05881      4.52911     -2.21193         2.248723      0.046588      0.379115
O	      6.58239      4.36729      0.04343        -0.598345     -0.430000      0.018515
O	      0.19725      2.33533     -0.02018        -0.490899      0.888156      1.391317
