# total energy = -101.75424850 eV
 
CRYSTAL
PRIMVEC
-2.169516 4.454227 -2.171273 
2.118414 4.402234 2.120041 
6.432136 -0.026357 -2.145775 
PRIMCOORD
16 1
Li	      0.16045      0.18359      0.01069         0.299930      0.008030     -0.142821
Li	      2.25502      2.27652     -0.05634         0.215856      0.207855     -0.137512
Li	      4.39100      4.57672      0.02102        -0.533341      0.003358     -0.374752
Li	      4.43566      2.27863     -2.22902        -0.118589      0.290675      0.121280
Ti	      2.15629      4.60406     -2.19993         0.694968      0.228246      1.373125
Ti	      4.51920      6.89670     -2.36827         0.290174     -1.653829      0.208445
Ni	      0.19283      4.60261     -0.07254        -0.903305      0.256756     -0.111640
Ni	      2.15164      6.89657     -0.00167         0.696316     -0.755023     -0.676044
O	      4.44522      2.29587     -0.09731         0.956890     -1.588841     -0.004657
O	      2.18456      4.63846     -0.10752        -0.009694      0.318900     -2.093236
O	      2.21720      2.45953     -2.32687         0.029774      1.788221     -0.658806
O	      4.36603      4.74802     -2.23688        -0.584643      1.062603      0.251945
O	      0.15119      6.84612     -0.11012        -2.259317     -0.739846      0.264520
O	      0.05937      4.57298     -2.23336         2.465503      0.041118      0.440978
O	      6.64614      4.40959      0.04385        -0.680893     -0.472851      0.018764
O	      0.23023      2.35782     -0.03074        -0.559630      1.004627      1.520411
