# total energy = -101.24424043 eV
 
CRYSTAL
PRIMVEC
-2.179947 4.475641 -2.181712 
2.128599 4.423398 2.130233 
6.463060 -0.026484 -2.156091 
PRIMCOORD
16 1
Li	      0.17223      0.20663      0.02103         0.339851      0.012387     -0.147528
Li	      2.27676      2.29847     -0.05689         0.240112      0.222997     -0.146662
Li	      4.43332      4.62084      0.02123        -0.589717      0.002337     -0.411479
Li	      4.47841      2.30059     -2.25051        -0.125306      0.317821      0.134681
Ti	      2.17708      4.64843     -2.22113         0.780708      0.242374      1.449409
Ti	      4.56276      6.96317     -2.39110         0.295028     -1.791008      0.237125
Ni	      0.22576      4.64684     -0.08360        -0.994734      0.279316     -0.149358
Ni	      2.17238      6.96305     -0.00168         0.784983     -0.802789     -0.717654
O	      4.47759      2.33951     -0.10874         1.022775     -1.698321     -0.017977
O	      2.20562      4.68317     -0.10856        -0.007158      0.346998     -2.238093
O	      2.23857      2.48324     -2.34930         0.027704      1.924347     -0.727346
O	      4.40811      4.79379     -2.25844        -0.610486      1.133556      0.276643
O	      0.18372      6.91198     -0.12155        -2.435775     -0.808770      0.289350
O	      0.05995      4.61705     -2.25489         2.663040      0.030463      0.498855
O	      6.71020      4.45209      0.04427        -0.762257     -0.523513      0.028743
O	      0.26352      2.38042     -0.04141        -0.628768      1.111806      1.641290
