# total energy = -92.41568087 eV
 
CRYSTAL
PRIMVEC
4.059540 -0.000038 -0.000307 
-2.029618 4.037507 -6.295502 
-2.029775 4.098542 2.139438 
PRIMCOORD
16 1
Li	      2.02867      2.08172     -0.05536         0.001112      0.006542      0.016169
Li	     -0.00119      4.09878      0.01657         0.004104     -0.012407      0.009089
Li	      2.02923      4.06915     -1.96158        -0.000947      0.000501      0.031198
Li	     -0.00012      4.03520     -4.16609        -0.002067      0.016457      0.003420
Mn	     -2.03059      4.11482      2.09405         0.003083     -0.010720     -0.038281
Mn	     -0.00031      6.06823     -2.03704        -0.000339      0.025366     -0.025819
Ni	     -0.00099      2.08524     -2.05535         0.002255      0.030729      0.030190
Ni	     -2.03029      6.02989     -4.21554         0.008165     -0.028919     -0.017824
O	     -2.02996      6.09581     -2.04425        -0.002029     -0.013076     -0.014612
O	     -2.03026      4.12674      0.22003        -0.000862     -0.110788     -0.024410
O	     -0.00005      6.16503     -4.02915        -0.008151     -0.020879      0.042338
O	     -2.03031      8.06387     -4.17378        -0.003194      0.144720     -0.004241
O	      2.02932      3.97687     -4.38188        -0.002489     -0.153362      0.029630
O	      2.02915      2.08894     -2.26826        -0.001685      0.000754     -0.038635
O	     -0.00052      4.17637     -2.06683         0.002363      0.114071     -0.003621
O	     -0.00079      1.89756      0.00947         0.000680      0.011011      0.005409
