# total energy = -100.69350561 eV
 
CRYSTAL
PRIMVEC
-2.190377 4.497056 -2.192151 
2.138784 4.444563 2.140426 
6.493984 -0.026611 -2.166408 
PRIMCOORD
16 1
Li	      0.18411      0.22987      0.03147         0.380785      0.020750     -0.152616
Li	      2.29860      2.32052     -0.05743         0.267328      0.235018     -0.154713
Li	      4.47584      4.66516      0.02143        -0.641843      0.001744     -0.440977
Li	      4.52137      2.32266     -2.27209        -0.132580      0.344412      0.150441
Ti	      2.19796      4.69302     -2.24244         0.864059      0.255524      1.512706
Ti	      4.60653      7.02997     -2.41403         0.298639     -1.916985      0.264458
Ni	      0.25900      4.69129     -0.09477        -1.093760      0.300012     -0.183436
Ni	      2.19322      7.02984     -0.00170         0.876623     -0.841259     -0.752558
O	      4.51006      2.38347     -0.12027         1.083423     -1.799331     -0.036849
O	      2.22678      4.72809     -0.10960         0.005037      0.368884     -2.369547
O	      2.26004      2.50706     -2.37183         0.023909      2.049592     -0.798527
O	      4.45040      4.83977     -2.28010        -0.634103      1.190928      0.299497
O	      0.21655      6.97816     -0.13308        -2.603432     -0.881217      0.311436
O	      0.06052      4.66134     -2.27651         2.852973      0.023550      0.554787
O	      6.77457      4.49479      0.04469        -0.846840     -0.567968      0.041222
O	      0.29712      2.40313     -0.05217        -0.700217      1.216345      1.754676
