# total energy = -99.76906182 eV
 
CRYSTAL
PRIMVEC
-2.005493 3.988783 -2.004505 
1.959145 3.941760 1.957517 
5.986619 -0.023056 -2.020648 
PRIMCOORD
16 1
Li	      1.91788      3.76595      1.83073        -0.356389     -0.008881      0.486658
Li	      1.89242      1.88416     -0.02983        -0.405889     -0.765867      0.365457
Li	      3.82453      1.88451     -1.94571         0.083933     -0.655098     -0.286830
Li	      5.68424      3.76196     -1.93208         0.436153     -0.286707     -0.018044
Ti	      1.82840      3.78968     -1.87499        -1.089062     -1.638643     -3.822945
Ti	      3.92124      5.66697     -2.08681        -1.124518      3.571320     -1.480349
Ni	      3.77736      3.76319     -0.03695         1.566688     -0.815516      2.253852
Ni	      1.80483      5.66866      0.02166        -1.778828      2.279428      1.955609
O	      1.93227      5.60511     -1.92625        -2.086133      2.740390     -1.031615
O	      1.90462      3.79900     -0.11558        -1.512517     -2.069883      4.109590
O	      3.75304      5.73242     -0.10812         1.045095      0.696646      1.892311
O	      3.70515      3.87871     -1.91036         1.860766     -3.194837     -2.368182
O	      5.61599      5.65483     -1.95078         4.774249      0.861049     -0.287636
O	      0.07003      3.77393     -1.94687        -4.465833      0.101833     -0.053940
O	      5.65222      3.65011      0.03687         2.245002      0.269704      0.264177
O	      5.69791      1.87419     -1.86969         0.807283     -1.084938     -1.978113
