# total energy = -100.72032533 eV
 
CRYSTAL
PRIMVEC
-2.015993 4.009666 -2.015000 
1.969402 3.962397 1.967766 
6.017963 -0.023176 -2.031227 
PRIMCOORD
16 1
Li	      1.93800      3.80549      1.84995        -0.316099     -0.008895      0.403831
Li	      1.91229      1.90394     -0.03014        -0.355715     -0.652970      0.315583
Li	      3.86468      1.90430     -1.96614         0.080940     -0.564499     -0.250143
Li	      5.74392      3.80145     -1.95237         0.361378     -0.248724     -0.004173
Ti	      1.84759      3.82947     -1.89467        -0.981371     -1.312477     -3.227830
Ti	      3.96241      5.72647     -2.10872        -0.912190      3.047415     -1.228100
Ni	      3.81702      3.80270     -0.03734         1.370165     -0.650818      1.908076
Ni	      1.82378      5.72818      0.02189        -1.505766      1.925368      1.663656
O	      1.95256      5.66396     -1.94648        -1.767083      2.288990     -0.870872
O	      1.92461      3.83888     -0.11679        -1.278923     -1.778869      3.476707
O	      3.79244      5.79260     -0.10925         0.896228      0.553372      1.596058
O	      3.74405      3.91943     -1.93042         1.543128     -2.712983     -2.026912
O	      5.67496      5.71420     -1.97126         3.998302      0.740562     -0.264919
O	      0.07076      3.81355     -1.96732        -3.771711      0.110482     -0.028484
O	      5.71156      3.68843      0.03725         1.933024      0.223450      0.226594
O	      5.75773      1.89387     -1.88932         0.705693     -0.959404     -1.689070
