# total energy = -101.52729530 eV
 
CRYSTAL
PRIMVEC
-2.026493 4.030550 -2.025495 
1.979660 3.983035 1.978014 
6.049306 -0.023297 -2.041807 
PRIMCOORD
16 1
Li	      1.95825      3.84523      1.86927        -0.276342     -0.007740      0.329181
Li	      1.93225      1.92382     -0.03046        -0.306167     -0.546710      0.272550
Li	      3.90505      1.92418     -1.98667         0.077117     -0.478311     -0.215795
Li	      5.80391      3.84116     -1.97276         0.297946     -0.217140      0.007339
Ti	      1.86689      3.86947     -1.91446        -0.873179     -1.028649     -2.677717
Ti	      4.00379      5.78627     -2.13074        -0.714885      2.561566     -1.012724
Ni	      3.85688      3.84241     -0.03773         1.171694     -0.505433      1.591084
Ni	      1.84282      5.78800      0.02211        -1.257479      1.599943      1.394997
O	      1.97295      5.72311     -1.96681        -1.471534      1.872587     -0.722231
O	      1.94471      3.87898     -0.11801        -1.065766     -1.507092      2.885225
O	      3.83205      5.85310     -0.11039         0.757634      0.436146      1.323052
O	      3.78315      3.96036     -1.95058         1.259122     -2.266229     -1.714256
O	      5.73423      5.77388     -1.99185         3.287067      0.629797     -0.239062
O	      0.07150      3.85338     -1.98786        -3.130410      0.114273     -0.003729
O	      5.77121      3.72696      0.03764         1.641264      0.176441      0.191436
O	      5.81786      1.91364     -1.90906         0.603918     -0.833447     -1.409349
