# total energy = -102.19944531 eV
 
CRYSTAL
PRIMVEC
-2.036993 4.051434 -2.035989 
1.989917 4.003672 1.988263 
6.080650 -0.023418 -2.052386 
PRIMCOORD
16 1
Li	      1.97859      3.88518      1.88869        -0.237873     -0.007605      0.260452
Li	      1.95233      1.94381     -0.03078        -0.260158     -0.450514      0.232306
Li	      3.94562      1.94417     -2.00731         0.071460     -0.395306     -0.182323
Li	      5.86420      3.88107     -1.99325         0.240926     -0.176360      0.011664
Ti	      1.88629      3.90966     -1.93435        -0.765325     -0.784855     -2.170180
Ti	      4.04539      5.84639     -2.15288        -0.532997      2.110171     -0.831050
Ni	      3.89695      3.88233     -0.03812         0.987127     -0.381600      1.300576
Ni	      1.86197      5.84814      0.02234        -1.032981      1.303394      1.149412
O	      1.99345      5.78257     -1.98724        -1.205089      1.494855     -0.593300
O	      1.96492      3.91928     -0.11924        -0.874211     -1.257043      2.335746
O	      3.87186      5.91391     -0.11154         0.633220      0.333708      1.076214
O	      3.82246      4.00151     -1.97084         1.004780     -1.848964     -1.426568
O	      5.79380      5.83386     -2.01254         2.625444      0.520382     -0.210516
O	      0.07224      3.89342     -2.00851        -2.537323      0.116811      0.015595
O	      5.83117      3.76568      0.03803         1.374430      0.131821      0.163442
O	      5.87831      1.93353     -1.92889         0.508570     -0.708896     -1.131471
