# total energy = -102.74680986 eV
 
CRYSTAL
PRIMVEC
-2.047493 4.072317 -2.046484 
2.000174 4.024310 1.998512 
6.111994 -0.023539 -2.062965 
PRIMCOORD
16 1
Li	      1.99904      3.92534      1.90821        -0.198548     -0.009276      0.201465
Li	      1.97251      1.96390     -0.03109        -0.216255     -0.360038      0.192411
Li	      3.98640      1.96427     -2.02806         0.060692     -0.321813     -0.152798
Li	      5.92481      3.92118     -2.01386         0.184986     -0.143360      0.014178
Ti	      1.90578      3.95007     -1.95434        -0.657970     -0.578226     -1.701198
Ti	      4.08721      5.90682     -2.17513        -0.365557      1.690968     -0.678986
Ni	      3.93723      3.92246     -0.03852         0.809940     -0.281680      1.033915
Ni	      1.88122      5.90858      0.02258        -0.829281      1.030647      0.922471
O	      2.01405      5.84234     -2.00778        -0.955983      1.152049     -0.476849
O	      1.98523      3.95979     -0.12047        -0.705182     -1.022839      1.830584
O	      3.91188      5.97503     -0.11269         0.515634      0.259701      0.850540
O	      3.86197      4.04287     -1.99121         0.774411     -1.459058     -1.161185
O	      5.85368      5.89416     -2.03334         2.022016      0.422039     -0.183114
O	      0.07299      3.93366     -2.02927        -1.988839      0.114537      0.035916
O	      5.89144      3.80459      0.03843         1.127606      0.093733      0.135527
O	      5.93907      1.95351     -1.94883         0.422330     -0.587383     -0.862876
