# total energy = -103.17789991 eV
 
CRYSTAL
PRIMVEC
-2.057993 4.093201 -2.056979 
2.010432 4.044947 2.008761 
6.143337 -0.023659 -2.073545 
PRIMCOORD
16 1
Li	      2.01960      3.96570      1.92783        -0.156888     -0.008578      0.147762
Li	      1.99279      1.98409     -0.03141        -0.172201     -0.278449      0.154018
Li	      4.02739      1.98446     -2.04891         0.051920     -0.252582     -0.123940
Li	      5.98574      3.96150     -2.03456         0.140964     -0.110615      0.014107
Ti	      1.92538      3.99069     -1.97444        -0.550142     -0.405103     -1.273038
Ti	      4.12923      5.96756     -2.19750        -0.210377      1.303655     -0.557240
Ni	      3.97771      3.96279     -0.03891         0.633070     -0.192690      0.792880
Ni	      1.90056      5.96934      0.02281        -0.646551      0.784813      0.719247
O	      2.03476      5.90242     -2.02842        -0.723350      0.842198     -0.375530
O	      2.00564      4.00050     -0.12171        -0.553166     -0.812364      1.361281
O	      3.95211      6.03648     -0.11385         0.413961      0.200636      0.640812
O	      3.90168      4.08444     -2.01169         0.566874     -1.096765     -0.914412
O	      5.91388      5.95477     -2.05425         1.459366      0.324891     -0.151412
O	      0.07374      3.97411     -2.05014        -1.481680      0.117955      0.051852
O	      5.95202      3.84372      0.03882         0.893307      0.051154      0.114074
O	      6.00014      1.97360     -1.96887         0.334892     -0.468156     -0.600461
