# total energy = -103.50067059 eV
 
CRYSTAL
PRIMVEC
-2.068493 4.114085 -2.067474 
2.020689 4.065585 2.019009 
6.174681 -0.023780 -2.084124 
PRIMCOORD
16 1
Li	      2.04026      4.00627      1.94755        -0.116619     -0.007792      0.100879
Li	      2.01318      2.00439     -0.03173        -0.129589     -0.200605      0.117544
Li	      4.06859      2.00477     -2.06988         0.041537     -0.182676     -0.095026
Li	      6.04698      4.00203     -2.05538         0.103454     -0.082270      0.008620
Ti	      1.94508      4.03152     -1.99464        -0.444276     -0.262773     -0.878532
Ti	      4.17147      6.02860     -2.21998        -0.069274      0.945346     -0.460040
Ni	      4.01841      4.00334     -0.03931         0.465060     -0.123006      0.574900
Ni	      1.92000      6.03041      0.02304        -0.482414      0.555583      0.533577
O	      2.05557      5.96280     -2.04918        -0.511997      0.559224     -0.287081
O	      2.02616      4.04143     -0.12296        -0.418614     -0.616215      0.929228
O	      3.99254      6.09823     -0.11502         0.321439      0.156819      0.449813
O	      3.94159      4.12622     -2.03227         0.384650     -0.760320     -0.688683
O	      5.97438      6.01569     -2.07527         0.943024      0.239227     -0.119896
O	      0.07450      4.01476     -2.07111        -1.018564      0.121620      0.065544
O	      6.01291      3.88304      0.03922         0.679431      0.007345      0.093599
O	      6.06152      1.99379     -1.98901         0.252752     -0.349506     -0.344447
