# total energy = -103.72403818 eV
 
CRYSTAL
PRIMVEC
-2.078993 4.134968 -2.077969 
2.030946 4.086222 2.029258 
6.206024 -0.023901 -2.094703 
PRIMCOORD
16 1
Li	      2.06102      4.04705      1.96737        -0.079211     -0.006552      0.057509
Li	      2.03367      2.02479     -0.03206        -0.085349     -0.129271      0.084334
Li	      4.11000      2.02517     -2.09094         0.027967     -0.118774     -0.067384
Li	      6.10852      4.04276     -2.07630         0.065250     -0.048611      0.005462
Ti	      1.96487      4.07255     -2.01494        -0.338214     -0.150973     -0.515585
Ti	      4.21393      6.08996     -2.24258         0.060955      0.613093     -0.383117
Ni	      4.05931      4.04408     -0.03971         0.303142     -0.065466      0.370108
Ni	      1.93954      6.09178      0.02327        -0.328842      0.350259      0.367711
O	      2.07649      6.02349     -2.07003        -0.319027      0.305672     -0.211285
O	      2.04678      4.08256     -0.12421        -0.296572     -0.433589      0.532267
O	      4.03317      6.16030     -0.11619         0.234149      0.133083      0.279395
O	      3.98171      4.16822     -2.05295         0.223152     -0.452315     -0.483821
O	      6.03518      6.07691     -2.09639         0.467434      0.151162     -0.089775
O	      0.07525      4.05562     -2.09219        -0.587186      0.117089      0.080322
O	      6.07411      3.92256      0.03962         0.479229     -0.031555      0.074304
O	      6.12321      2.01408     -2.00925         0.173123     -0.233253     -0.100445
