# total energy = -92.61058249 eV
 
CRYSTAL
PRIMVEC
2.119984 4.078567 2.017995 
4.234225 -2.016932 -2.056618 
0.039832 4.082290 -4.082426 
PRIMCOORD
16 1
Li	      2.05596      2.04825     -0.03148        -0.006333     -0.007352     -0.005413
Li	      4.29907      4.07545     -0.08105        -0.009212      0.005145      0.000868
Li	      0.12243      2.02116     -2.02682         0.035427      0.002295      0.002526
Li	      4.18698      6.10417     -2.05239        -0.010036     -0.001672     -0.009820
Mn	      2.12522      4.07561      1.99098         0.024876      0.020809      0.006733
Mn	      2.17474      4.07617     -2.03670         0.035729     -0.034109     -0.005027
Ni	      4.22188      2.03817     -2.05808         0.009594     -0.054680     -0.062683
Ni	      4.26669      4.12587     -4.10402        -0.080140     -0.012235      0.020283
O	      4.04938      4.08785     -2.08886        -0.069916      0.113488      0.118735
O	      4.40741      2.06402     -4.18431         0.034480     -0.100086     -0.087022
O	      4.45172      2.03387     -0.04546         0.058825      0.139097      0.119703
O	      4.19753     -0.08591     -2.05349         0.008544     -0.118450     -0.113456
O	      2.06384      4.08698     -0.01615         0.093817     -0.004958     -0.016095
O	      2.21693      2.19163     -2.03368        -0.147283      0.068769      0.000803
O	      2.11492      6.12869     -2.04012         0.099183     -0.017704     -0.006141
O	      2.04872      4.09320     -3.96538        -0.077553      0.001643      0.036006
