# total energy = -103.85487040 eV
 
CRYSTAL
PRIMVEC
-2.089493 4.155852 -2.088463 
2.041203 4.106859 2.039507 
6.237368 -0.024021 -2.105283 
PRIMCOORD
16 1
Li	      2.08189      4.08802      1.98730        -0.040200     -0.005292      0.021027
Li	      2.05427      2.04530     -0.03238        -0.042238     -0.064466      0.053481
Li	      4.15162      2.04568     -2.11211         0.015539     -0.058012     -0.042235
Li	      6.17038      4.08370     -2.09732         0.032235     -0.017839     -0.001979
Ti	      1.98477      4.11379     -2.03534        -0.231948     -0.064919     -0.184002
Ti	      4.25660      6.15163     -2.26528         0.181529      0.305295     -0.327041
Ni	      4.10041      4.08503     -0.04011         0.140671     -0.026174      0.186998
Ni	      1.95919      6.15347      0.02351        -0.194061      0.168521      0.217981
O	      2.09752      6.08449     -2.09099        -0.139322      0.081259     -0.146581
O	      2.06751      4.12390     -0.12547        -0.191570     -0.268795      0.165618
O	      4.07401      6.22268     -0.11736         0.155134      0.118383      0.118625
O	      4.02204      4.21043     -2.07374         0.081938     -0.169499     -0.292349
O	      6.09630      6.13845     -2.11762         0.028474      0.072148     -0.060962
O	      0.07601      4.09670     -2.11338        -0.184976      0.115435      0.092255
O	      6.13562      3.96229      0.04002         0.296265     -0.067803      0.060563
O	      6.18522      2.03448     -2.02960         0.092532     -0.118243      0.138601
