# total energy = -103.86605385 eV
 
CRYSTAL
PRIMVEC
-2.110493 4.197619 -2.109453 
2.061718 4.148134 2.060005 
6.300055 -0.024263 -2.126441 
PRIMCOORD
16 1
Li	      0.06223      0.02248     -0.03256         0.037849     -0.008691     -0.040389
Li	      2.09576      2.08661     -0.03304         0.036859      0.050838     -0.003000
Li	      4.23549      2.08700     -2.15478        -0.013279      0.048857      0.007562
Li	     -0.00503      4.19046     -0.01325        -0.020185      0.031814     -0.019372
Ti	      2.02487      4.19690     -2.07646        -0.021081      0.033309      0.394190
Ti	      4.34260      6.27590     -2.31105         0.390708     -0.241553     -0.266618
Ni	      4.18325      4.16755     -0.04092        -0.150561      0.023052     -0.128451
Ni	      1.99877      6.27778      0.02399         0.037826     -0.150049     -0.041784
O	      2.13990      6.20740     -2.13324         0.180349     -0.302195     -0.039729
O	      2.10928      4.20721     -0.12800        -0.020203      0.029913     -0.485054
O	      2.09460      2.20025     -2.17974         0.019563      0.139039     -0.153393
O	      4.10328      4.29548     -2.11563        -0.152866      0.337747      0.042638
O	      6.21945      6.26246     -2.16040        -0.751723     -0.071411      0.002767
O	      0.07755      4.17945     -2.15607         0.522321      0.113078      0.103113
O	      6.25956      4.04233      0.04083        -0.037459     -0.143218      0.038936
O	      6.31018      2.07558     -2.07060        -0.058116      0.109468      0.588584
