# total energy = -103.58427792 eV
 
CRYSTAL
PRIMVEC
-2.131493 4.239387 -2.130442 
2.082233 4.189409 2.080502 
6.362742 -0.024504 -2.147600 
PRIMCOORD
16 1
Li	      0.08420      0.06461     -0.01251         0.114094     -0.003733     -0.089055
Li	      2.13768      2.12834     -0.03370         0.111802      0.148585     -0.051727
Li	      4.32020      2.12874     -2.19788        -0.038479      0.144876      0.053262
Li	      0.05818      4.27402     -0.03488        -0.061549      0.081595     -0.038095
Ti	      2.06536      4.28083     -2.11799         0.188823      0.048806      0.872790
Ti	      4.42944      6.40142     -2.35726         0.566954     -0.706370     -0.261069
Ni	      4.26691      4.25091     -0.04174        -0.428826      0.025977     -0.387863
Ni	      2.03874      6.40333      0.02447         0.234578     -0.406488     -0.247455
O	      2.18269      6.33155     -2.17590         0.452427     -0.604390      0.034708
O	      2.15146      4.29135     -0.13056         0.105814      0.283229     -1.031499
O	      2.15721      2.28594     -2.20263        -0.106806      0.205296     -0.381416
O	      4.18535      4.38139     -2.15795        -0.326353      0.767221      0.324339
O	     -0.01890      6.41221     -0.05601        -1.408207     -0.202695      0.067583
O	      0.07910      4.26304     -2.19919         1.129212      0.100668      0.116610
O	      6.38475      4.12317      0.04164        -0.333413     -0.214691      0.015171
O	      0.07364      2.14159      0.03559        -0.200069      0.332115      1.003718
