# total energy = -103.34725574 eV
 
CRYSTAL
PRIMVEC
-2.141993 4.260270 -2.140937 
2.092490 4.210047 2.090751 
6.394086 -0.024625 -2.158179 
PRIMCOORD
16 1
Li	      0.09534      0.08599     -0.00234         0.151717     -0.000332     -0.108899
Li	      2.15879      2.14937     -0.03403         0.148748      0.191829     -0.073728
Li	      4.36287      2.14977     -2.21958        -0.051321      0.190243      0.073040
Li	      0.09026      4.31611     -0.04586        -0.078698      0.105088     -0.046292
Ti	      2.08577      4.32311     -2.13891         0.294540      0.030758      1.078548
Ti	      4.47319      6.46464     -2.38055         0.642799     -0.909244     -0.273647
Ni	      4.30905      4.29289     -0.04216        -0.559656      0.011764     -0.497737
Ni	      2.05888      6.46657      0.02471         0.321193     -0.517752     -0.334085
O	      4.34624      2.13381     -0.05645         0.574205     -0.726907      0.059242
O	      2.17271      4.33374     -0.13185         0.155522      0.391114     -1.266035
O	      2.18882      2.32926     -2.21408        -0.164113      0.246316     -0.476321
O	      4.22668      4.42467     -2.17926        -0.394651      0.953400      0.448381
O	      0.01241      6.47542     -0.06719        -1.704212     -0.267673      0.094429
O	      0.07988      4.30515     -2.22091         1.399466      0.100942      0.119933
O	      6.44782      4.16389      0.04205        -0.463561     -0.244917      0.008534
O	      0.10586      2.16262      0.02531        -0.271978      0.445371      1.194636
