# total energy = -102.30905575 eV
 
CRYSTAL
PRIMVEC
-2.173492 4.322921 -2.172422 
2.123262 4.271959 2.121497 
6.488116 -0.024987 -2.189917 
PRIMCOORD
16 1
Li	      0.12939      0.15136      0.02879         0.266922      0.005956     -0.157899
Li	      2.22275      2.21304     -0.03504         0.262238      0.296411     -0.133229
Li	      4.49213      2.21346     -2.28535        -0.082549      0.303807      0.132020
Li	      0.18834      4.44362     -0.07942        -0.113266      0.165290     -0.077302
Ti	      2.14756      4.45119     -2.20228         0.607064     -0.115291      1.580023
Ti	      4.60573      6.65618     -2.45108         0.828799     -1.422027     -0.360529
Ni	      4.43673      4.42008     -0.04341        -0.921226     -0.068226     -0.758563
Ni	      2.11987      6.65817      0.02544         0.543625     -0.768747     -0.522250
O	      4.44305      2.26060     -0.09007         0.884739     -0.995087      0.103777
O	      2.23708      4.46214     -0.13576         0.257550      0.665098     -1.854643
O	      2.28489      2.46109     -2.24848        -0.313375      0.434158     -0.719080
O	      4.35192      4.55576     -2.24383        -0.533842      1.418197      0.761141
O	      0.10819      6.66691     -0.10139        -2.461685     -0.433493      0.181146
O	      0.08225      4.43270     -2.28672         2.092399      0.087947      0.123639
O	      6.63885      4.28726      0.04330        -0.825119     -0.344727     -0.012519
O	      0.20441      2.22633     -0.00615        -0.492275      0.770734      1.714267
