# total energy = -100.86527351 eV
 
CRYSTAL
PRIMVEC
-2.204992 4.385572 -2.203906 
2.154034 4.333872 2.152244 
6.582147 -0.025349 -2.221655 
PRIMCOORD
16 1
Li	      0.16438      0.21859      0.06083         0.383703      0.018975     -0.195253
Li	      2.28765      2.27766     -0.03606         0.375727      0.374109     -0.183632
Li	      4.62328      2.27809     -2.35207        -0.108634      0.394918      0.182041
Li	      0.28924      4.57299     -0.11394        -0.141927      0.213960     -0.098519
Ti	      2.21026      4.58115     -2.26657         0.917212     -0.365766      1.933280
Ti	      4.74019      6.85050     -2.52264         0.964046     -1.800992     -0.489938
Ni	      4.56626      4.54912     -0.04467        -1.249241     -0.202679     -0.930049
Ni	      2.18176      6.85256      0.02618         0.744873     -0.933454     -0.625732
O	      4.54081      2.39016     -0.12464         1.131184     -1.149802      0.113695
O	      2.30239      4.59241     -0.13972         0.302085      0.874673     -2.283083
O	      2.38282      2.59575     -2.28294        -0.443182      0.675097     -0.895587
O	      4.47897      4.68877     -2.30934        -0.596818      1.760721      0.996238
O	      0.20674      6.86118     -0.13654        -3.078366     -0.580318      0.249205
O	      0.08465      4.56211     -2.35348         2.650763      0.074257      0.113462
O	      6.83267      4.41243      0.04456        -1.135646     -0.436554     -0.026903
O	      0.30577      2.29096     -0.03853        -0.715778      1.082856      2.140775
