# total energy = -98.62912565 eV
 
CRYSTAL
PRIMVEC
-1.993322 3.882071 -1.994721 
1.979537 3.866988 1.979926 
6.058132 -0.006780 -2.085425 
PRIMCOORD
16 1
Li	      1.97855      3.67569      1.80367        -0.289908      0.058472      0.662722
Li	      1.88083      1.84052     -0.01199        -0.343238     -1.166963      0.398311
Li	      0.02522      3.67870     -0.01869        -0.796832     -0.115464      0.569597
Li	      1.80838      5.51685      0.04647        -0.146059      0.999129      0.478717
Ti	      1.81137      3.68376     -1.82801         0.532946     -2.009982     -5.428202
Ti	      3.95585      5.51665     -2.07914        -1.135105      3.368342     -1.459732
Ni	      3.79047      3.67404     -0.02816         1.720946     -0.963741      2.413775
Ni	      3.87096      1.83850     -1.98407        -0.395531     -2.058018     -0.748114
O	      2.00634      5.45893     -1.99771        -2.625131      3.183184      0.721061
O	      1.93265      3.68172     -0.13846        -1.566321     -0.527886      5.923775
O	      3.86912      5.57866     -0.13784        -0.731713      1.309310      2.527626
O	      3.76179      3.74150     -1.90970         1.204399     -2.309400     -2.365301
O	      5.64480      5.51934     -1.96173         5.698494      1.048319     -1.120083
O	      0.12308      3.68117     -1.94537        -5.902419     -0.057966     -0.271336
O	      5.67289      3.60754      0.00648         2.396867      0.322667      0.256357
O	      5.72878      1.83081     -1.87378         2.378605     -1.080005     -2.559173
