# total energy = -99.73991042 eV
 
CRYSTAL
PRIMVEC
-2.003813 3.902503 -2.005219 
1.989956 3.887341 1.990346 
6.090017 -0.006815 -2.096401 
PRIMCOORD
16 1
Li	      1.99944      3.71449      1.82271        -0.261969      0.051866      0.556988
Li	      1.90068      1.85995     -0.01211        -0.303672     -1.008728      0.351403
Li	      0.02548      3.71752     -0.01889        -0.685422     -0.108859      0.494847
Li	      1.82747      5.57508      0.04696        -0.117293      0.861835      0.420023
Ti	      1.83049      3.72263     -1.84731         0.387835     -1.647155     -4.655928
Ti	      3.99759      5.57488     -2.10108        -0.939117      2.901364     -1.207265
Ni	      3.83047      3.71282     -0.02846         1.519625     -0.783087      2.067128
Ni	      3.91182      1.85791     -2.00501        -0.279720     -1.779975     -0.666425
O	      2.02752      5.51655     -2.01879        -2.261055      2.693595      0.677208
O	      1.95305      3.72058     -0.13992        -1.348603     -0.465866      5.080709
O	      3.90995      5.63754     -0.13929        -0.656936      1.100187      2.168378
O	      3.80149      3.78099     -1.92986         0.983382     -1.983927     -2.040362
O	      5.70438      5.57759     -1.98243         4.862304      0.931683     -1.019338
O	      0.12438      3.72002     -1.96590        -5.042985     -0.046132     -0.197772
O	      5.73277      3.64562      0.00655         2.076591      0.263199      0.226257
O	      5.78924      1.85014     -1.89355         2.067034     -0.980000     -2.255850
