# total energy = -88.65619339 eV
 
CRYSTAL
PRIMVEC
-0.000382 2.031759 2.033227 
2.273561 -2.053210 0.020666 
11.632451 12.657961 0.026912 
PRIMCOORD
16 1
Li	      2.74189      2.26677     -0.24402         0.028011     -0.014170      0.012340
Li	      4.52065      2.15322     -2.15949        -0.009231      0.024968     -0.026057
Li	      7.05984      6.29274     -4.27088         0.012154     -0.023026      0.022034
Li	      8.83787      6.17554     -6.18823        -0.027708      0.013266     -0.014232
Mn	      0.11154      0.02800     -0.00964         0.002037      0.014442     -0.011777
Mn	      9.17805     10.49159     -6.42211        -0.001166     -0.011691      0.012848
Ni	      4.65047      6.26905     -2.20819        -0.000605     -0.002871      0.000137
Ni	     11.59704     10.56198     -8.52373         0.001944     -0.000733     -0.000974
O	     11.43439     12.64361     -8.57204         0.050348      0.095903     -0.091803
O	      9.38043      8.58258     -6.54599         0.014262     -0.014104      0.014765
O	     11.76013      8.48085     -8.47577        -0.052360     -0.094509      0.091534
O	      6.89196      8.33655     -4.28281        -0.004911      0.006596     -0.008952
O	      4.78317      4.35664     -2.32864        -0.040826     -0.149191      0.148979
O	      6.79124      4.09658     -4.10027         0.041469      0.147423     -0.145000
O	      2.18292     -0.11558      0.13575        -0.012376      0.014261     -0.011192
O	      2.41357      4.19307     -0.13514        -0.001041     -0.006565      0.007351
