# total energy = -101.51009561 eV
 
CRYSTAL
PRIMVEC
-2.024796 3.943367 -2.026216 
2.010793 3.928046 2.011188 
6.153787 -0.006887 -2.118353 
PRIMCOORD
16 1
Li	      2.04153      3.79268      1.86108        -0.201674      0.034527      0.375406
Li	      1.94069      1.89910     -0.01237        -0.234074     -0.723306      0.264827
Li	      0.02602      3.79579     -0.01929        -0.495597     -0.087527      0.355117
Li	      1.86594      5.69244      0.04795        -0.078450      0.615804      0.310352
Ti	      1.86903      3.80100     -1.88620         0.145724     -1.050223     -3.265687
Ti	      4.08175      5.69224     -2.14532        -0.593209      2.069514     -0.811909
Ni	      3.91110      3.79097     -0.02906         1.138433     -0.490692      1.460140
Ni	      3.99417      1.89702     -2.04722        -0.105448     -1.284600     -0.511791
O	      2.07020      5.63268     -2.06129        -1.606709      1.836806      0.569023
O	      1.99416      3.79890     -0.14287        -0.966792     -0.352272      3.564609
O	      3.99227      5.75622     -0.14223        -0.513875      0.757312      1.537342
O	      3.88152      3.86059     -1.97049         0.620957     -1.383756     -1.471213
O	      5.82446      5.69500     -2.02417         3.374104      0.710092     -0.820553
O	      0.12699      3.79833     -2.00728        -3.513548     -0.035485     -0.076923
O	      5.85345      3.72236      0.00669         1.512581      0.153588      0.175062
O	      5.91112      1.88909     -1.93341         1.517579     -0.769782     -1.653802
