# total energy = -102.18888104 eV
 
CRYSTAL
PRIMVEC
-2.035287 3.963799 -2.036715 
2.021211 3.948399 2.021608 
6.185672 -0.006922 -2.129328 
PRIMCOORD
16 1
Li	      2.06274      3.83209      1.88041        -0.171008      0.030675      0.299916
Li	      1.96086      1.91883     -0.01250        -0.201411     -0.592177      0.224908
Li	      0.02629      3.83522     -0.01949        -0.407801     -0.077700      0.293591
Li	      1.88533      5.75159      0.04845        -0.061142      0.503716      0.258226
Ti	      1.88845      3.84049     -1.90579         0.047683     -0.809559     -2.640695
Ti	      4.12416      5.75138     -2.16761        -0.439462      1.701142     -0.662020
Ni	      3.95174      3.83036     -0.02936         0.953028     -0.374321      1.199435
Ni	      4.03566      1.91673     -2.06849        -0.045591     -1.061009     -0.437122
O	      2.09171      5.69120     -2.08271        -1.320591      1.458498      0.505028
O	      2.01488      3.83837     -0.14435        -0.801665     -0.293060      2.886098
O	      4.03374      5.81602     -0.14370        -0.444174      0.620787      1.258066
O	      3.92185      3.90070     -1.99096         0.478169     -1.118875     -1.220515
O	      5.88498      5.75418     -2.04520         2.716251      0.604142     -0.718582
O	      0.12831      3.83779     -2.02814        -2.836462     -0.027613     -0.029698
O	      5.91427      3.76104      0.00675         1.260355      0.100492      0.144096
O	      5.97253      1.90871     -1.95350         1.273822     -0.665138     -1.360733
