# total energy = -102.74106675 eV
 
CRYSTAL
PRIMVEC
-2.045778 3.984231 -2.047213 
2.031630 3.968751 2.032029 
6.217557 -0.006958 -2.140304 
PRIMCOORD
16 1
Li	      2.08406      3.87170      1.89985        -0.140624      0.024223      0.222925
Li	      1.98113      1.93867     -0.01263        -0.166154     -0.479574      0.190931
Li	      0.02656      3.87487     -0.01969        -0.324579     -0.060174      0.232177
Li	      1.90481      5.81104      0.04895        -0.049712      0.402553      0.216451
Ti	      1.90797      3.88019     -1.92549        -0.034242     -0.603691     -2.059441
Ti	      4.16678      5.81082     -2.19001        -0.296344      1.360042     -0.541224
Ni	      3.99258      3.86995     -0.02966         0.774927     -0.273262      0.954738
Ni	      4.07738      1.93654     -2.08987        -0.000433     -0.854776     -0.367691
O	      2.11333      5.75002     -2.10423        -1.050136      1.120178      0.441690
O	      2.03570      3.87804     -0.14584        -0.651646     -0.234013      2.251781
O	      4.07544      5.87614     -0.14519        -0.380604      0.502496      1.001440
O	      3.96239      3.94102     -2.01154         0.348819     -0.867883     -0.989317
O	      5.94580      5.81365     -2.06634         2.106111      0.492741     -0.613664
O	      0.12964      3.87746     -2.04910        -2.208906     -0.022251      0.010640
O	      5.97539      3.79991      0.00682         1.030360      0.055969      0.120600
O	      6.03426      1.92844     -1.97369         1.043161     -0.562576     -1.072037
