# total energy = -103.17787084 eV
 
CRYSTAL
PRIMVEC
-2.056269 4.004663 -2.057712 
2.042049 3.989104 2.042450 
6.249441 -0.006994 -2.151280 
PRIMCOORD
16 1
Li	      2.10549      3.91151      1.91939        -0.110342      0.018110      0.162342
Li	      2.00150      1.95860     -0.01276        -0.133927     -0.370970      0.153464
Li	      0.02683      3.91471     -0.01989        -0.248765     -0.048542      0.173606
Li	      1.92440      5.87079      0.04945        -0.038919      0.307554      0.173936
Ti	      1.92759      3.92009     -1.94529        -0.105333     -0.429591     -1.519244
Ti	      4.20963      5.87058     -2.21253        -0.164439      1.044629     -0.445721
Ni	      4.03364      3.90974     -0.02997         0.597409     -0.190350      0.737244
Ni	      4.11930      1.95645     -2.11136         0.032529     -0.662706     -0.301211
O	      2.13506      5.80915     -2.12587        -0.803413      0.810898      0.375178
O	      2.05664      3.91792     -0.14734        -0.516823     -0.184445      1.664934
O	      4.11734      5.93656     -0.14668        -0.315200      0.403901      0.763488
O	      4.00313      3.98154     -2.03222         0.245721     -0.628049     -0.774730
O	      6.00694      5.87343     -2.08758         1.546356      0.392417     -0.512076
O	      0.13097      3.91733     -2.07017        -1.630081     -0.016361      0.041940
O	      6.03684      3.83899      0.00690         0.815071      0.005886      0.099908
O	      6.09631      1.94827     -1.99399         0.830156     -0.452379     -0.793060
