# total energy = -103.50508718 eV
 
CRYSTAL
PRIMVEC
-2.066760 4.025095 -2.068210 
2.052467 4.009456 2.052870 
6.281326 -0.007029 -2.162256 
PRIMCOORD
16 1
Li	      2.12703      3.95152      1.93902        -0.081818      0.012836      0.105846
Li	      2.02197      1.97864     -0.01289        -0.102285     -0.268858      0.122580
Li	      0.02711      3.95475     -0.02010        -0.177260     -0.033038      0.118948
Li	      1.94408      5.93085      0.04996        -0.028522      0.223670      0.134751
Ti	      1.94730      3.96019     -1.96519        -0.162220     -0.285201     -1.018561
Ti	      4.25270      5.93063     -2.23516        -0.041984      0.753602     -0.373080
Ni	      4.07491      3.94974     -0.03027         0.430185     -0.122738      0.537387
Ni	      4.16145      1.97647     -2.13296         0.050856     -0.482905     -0.238482
O	      2.15690      5.86858     -2.14762        -0.574738      0.529738      0.306808
O	      2.07768      3.95800     -0.14885        -0.393420     -0.136416      1.125259
O	      4.15946      5.99729     -0.14818        -0.259759      0.318442      0.545665
O	      4.04408      4.02228     -2.05301         0.155390     -0.407090     -0.577650
O	      6.06840      5.93352     -2.10894         1.029526      0.292298     -0.409794
O	      0.13231      3.95741     -2.09135        -1.091471     -0.010252      0.066114
O	      6.09860      3.87826      0.00696         0.615944     -0.042373      0.074417
O	      6.15867      1.96820     -2.01438         0.631578     -0.341715     -0.520208
