# total energy = -103.73109125 eV
 
CRYSTAL
PRIMVEC
-2.077252 4.045527 -2.078709 
2.062886 4.029809 2.063291 
6.313211 -0.007065 -2.173232 
PRIMCOORD
16 1
Li	      2.14868      3.99174      1.95876        -0.050676      0.007321      0.055202
Li	      2.04255      1.99878     -0.01302        -0.070460     -0.173897      0.090115
Li	      0.02738      3.99501     -0.02030        -0.110060     -0.020287      0.065910
Li	      1.96387      5.99121      0.05046        -0.022932      0.146647      0.100437
Ti	      1.96713      4.00050     -1.98519        -0.208172     -0.166752     -0.555333
Ti	      4.29598      5.99100     -2.25791         0.070789      0.485701     -0.322245
Ni	      4.11638      3.98994     -0.03058         0.263376     -0.070533      0.358840
Ni	      4.20380      1.99658     -2.15467         0.060033     -0.309416     -0.177059
O	      2.17885      5.92831     -2.16948        -0.361686      0.269626      0.238444
O	      2.09882      3.99829     -0.15036        -0.286384     -0.087069      0.624435
O	      4.20180      6.05833     -0.14969        -0.200269      0.255010      0.344763
O	      4.08524      4.06321     -2.07391         0.083479     -0.199918     -0.403146
O	      6.13016      5.99390     -2.13041         0.555969      0.190531     -0.306922
O	      0.13366      3.99768     -2.11263        -0.598782     -0.011128      0.085982
O	      6.16067      3.91773      0.00704         0.434993     -0.085372      0.050809
O	      6.22136      1.98823     -2.03489         0.440784     -0.230464     -0.250232
