# total energy = -103.86871540 eV
 
CRYSTAL
PRIMVEC
-2.108725 4.106823 -2.110204 
2.094142 4.090867 2.094553 
6.408866 -0.007172 -2.206160 
PRIMCOORD
16 1
Li	      2.21428      4.11362      2.01856         0.039415     -0.011624     -0.070909
Li	      2.10491      2.05981     -0.01341         0.015565      0.063116      0.008665
Li	      0.02821      4.11699     -0.02092         0.065366      0.023563     -0.079545
Li	      2.02384      6.17414      0.05201        -0.007160     -0.058111      0.003352
Ti	      2.02719      4.12264     -2.04581        -0.278437      0.039808      0.638316
Ti	      4.42715      6.17391     -2.32685         0.368713     -0.205214     -0.271543
Ni	      4.24207      4.11177     -0.03152        -0.203862      0.025415     -0.075910
Ni	      4.33216      2.05755     -2.22045         0.039880      0.139116     -0.000853
O	      4.35410      2.00249     -0.12551         0.185752     -0.354539      0.027338
O	      2.16290      4.12036     -0.15495        -0.026070      0.048139     -0.654199
O	      2.23594      2.15244     -2.24881        -0.063148      0.134511     -0.160429
O	      4.20998      4.18727     -2.13723        -0.053438      0.331344      0.039688
O	      6.31733      6.17692     -2.19545        -0.650519     -0.087315     -0.010868
O	      0.13774      4.11974     -2.17714         0.664687      0.003705      0.112093
O	      6.34877      4.03735      0.00725        -0.048206     -0.197506     -0.014172
O	      6.41131      2.04894     -2.09702        -0.048540      0.105591      0.508976
