# total energy = -103.75547012 eV
 
CRYSTAL
PRIMVEC
-2.119216 4.127255 -2.120703 
2.104560 4.111219 2.104973 
6.440751 -0.007208 -2.217136 
PRIMCOORD
16 1
Li	      0.13181      0.04343     -0.06628         0.070757     -0.017167     -0.098945
Li	      2.12591      2.08035     -0.01355         0.044085      0.126725     -0.015571
Li	      0.02850      4.15806     -0.02113         0.114207      0.037881     -0.124305
Li	      2.04402      6.23573      0.05252        -0.005015     -0.108088     -0.022995
Ti	      2.04741      4.16376     -2.06621        -0.282755      0.067449      0.975530
Ti	      4.47131      6.23550     -2.35006         0.454305     -0.401399     -0.281989
Ni	      4.28438      4.15278     -0.03183        -0.346936      0.032507     -0.193858
Ni	      4.37537      2.07807     -2.24260         0.023490      0.268838      0.052385
O	      4.38699      2.04301     -0.13732         0.338720     -0.521072     -0.041050
O	      2.18448      4.16147     -0.15650         0.039244      0.090816     -1.015109
O	      2.26872      2.19437     -2.26077        -0.022605      0.118459     -0.303917
O	      4.25197      4.22904     -2.15855        -0.076329      0.485104      0.160580
O	      6.38035      6.23853     -2.21735        -0.990229     -0.176939      0.083414
O	      0.13912      4.16084     -2.19885         1.020116      0.006743      0.113681
O	      6.41210      4.07763      0.00732        -0.187012     -0.225117     -0.035629
O	      6.47527      2.06938     -2.11794        -0.194043      0.215260      0.747778
