# total energy = -90.73937995 eV
 
CRYSTAL
PRIMVEC
-0.000004 2.085510 2.085915 
4.095422 0.000000 -0.000007 
-0.000079 8.457783 -8.459299 
PRIMCOORD
16 1
Li	      2.04444      2.25566     -0.16880        -0.000383     -0.003958      0.002259
Li	      4.09263      4.36177     -0.19417        -0.000815     -0.020242      0.020875
Li	      4.09270      6.14754     -1.97897        -0.000249      0.019614     -0.019673
Li	      2.04457      6.17103     -4.08785        -0.000327      0.002961     -0.003200
Mn	      4.09201      0.08217     -0.08045         0.000331      0.049130     -0.049827
Mn	      4.09205      8.34521     -4.17499         0.000064     -0.047294      0.047617
Ni	      2.04507      4.21225     -2.12919        -0.000952     -0.001999      0.002832
Ni	      2.04431      8.44263     -6.35716        -0.000752     -0.000971      0.000202
O	      2.04435      6.37468     -6.37537        -0.001313     -0.097341      0.096925
O	      4.09198      8.44268     -6.35727         0.002247      0.000726     -0.001267
O	      2.04508      6.15377     -1.98496         0.001208      0.148316     -0.148426
O	      4.09219      6.43531     -4.35138         0.000344     -0.020833      0.020983
O	      2.04502      4.35631     -0.18720        -0.001026     -0.147768      0.147450
O	      4.09285      4.21214     -2.12954         0.000864      0.000746      0.000603
O	      2.04425      8.42513     -8.42497         0.001493      0.102045     -0.100634
O	      4.09209      1.99227      0.09560        -0.000734      0.016868     -0.016718
