# total energy = -103.57115339 eV
 
CRYSTAL
PRIMVEC
-2.129707 4.147686 -2.131201 
2.114979 4.131572 2.115394 
6.472636 -0.007243 -2.228112 
PRIMCOORD
16 1
Li	      0.14359      0.06432     -0.05646         0.096531     -0.020198     -0.128222
Li	      2.14701      2.10100     -0.01368         0.072797      0.184887     -0.039056
Li	      0.02879      4.19932     -0.02134         0.159879      0.054509     -0.166881
Li	      2.06431      6.29762      0.05304        -0.000041     -0.158538     -0.050212
Ti	      2.06773      4.20509     -2.08672        -0.277789      0.077336      1.284345
Ti	      4.51569      6.29739     -2.37339         0.536509     -0.580719     -0.303712
Ni	      4.32691      4.19400     -0.03215        -0.494044      0.030303     -0.294328
Ni	      4.41880      2.09870     -2.26486         0.003390      0.392852      0.102339
O	      4.41999      2.08381     -0.14923         0.487181     -0.667385     -0.108385
O	      2.20616      4.20277     -0.15805         0.096318      0.129722     -1.342245
O	      2.30171      2.23660     -2.27274         0.008583      0.110109     -0.433483
O	      4.29417      4.27101     -2.17997        -0.088719      0.627981      0.273055
O	      6.44367      6.30045     -2.23936        -1.299432     -0.258207      0.174806
O	      0.14049      4.20214     -2.22068         1.352510      0.009322      0.106195
O	      6.47574      4.11810      0.00740        -0.318447     -0.257903     -0.054838
O	      6.53954      2.08992     -2.13896        -0.335227      0.325930      0.980623
