# total energy = -103.32257415 eV
 
CRYSTAL
PRIMVEC
-2.140199 4.168118 -2.141700 
2.125398 4.151924 2.125815 
6.504521 -0.007279 -2.239088 
PRIMCOORD
16 1
Li	      0.15547      0.08541     -0.04655         0.126311     -0.023627     -0.152530
Li	      2.16821      2.12175     -0.01382         0.101610      0.242284     -0.059177
Li	      0.02907      4.24080     -0.02155         0.202271      0.069865     -0.208868
Li	      2.08470      6.35982      0.05357         0.003124     -0.205864     -0.075774
Ti	      2.08815      4.24663     -2.10733        -0.265069      0.070954      1.569078
Ti	      4.56029      6.35958     -2.39683         0.611411     -0.747067     -0.334590
Ni	      4.36964      4.23542     -0.03246        -0.627343      0.023629     -0.382281
Ni	      4.46243      2.11942     -2.28723        -0.023184      0.505178      0.150155
O	      4.45310      2.12493     -0.16125         0.620930     -0.797357     -0.177666
O	      2.22796      4.24428     -0.15961         0.147477      0.166176     -1.644602
O	      2.33491      2.27914     -2.28472         0.038394      0.114902     -0.551884
O	      4.33658      4.31320     -2.20150        -0.093558      0.759247      0.373548
O	      0.00279      6.36996     -0.02239        -1.591380     -0.343102      0.270587
O	      0.14188      4.24364     -2.24261         1.654423      0.014664      0.095876
O	      6.53970      4.15877      0.00747        -0.438069     -0.287154     -0.076783
O	      0.09961      2.11784      0.07901        -0.467347      0.437274      1.204913
