# total energy = -103.01320474 eV
 
CRYSTAL
PRIMVEC
-2.150690 4.188550 -2.152199 
2.135816 4.172277 2.136235 
6.536406 -0.007315 -2.250064 
PRIMCOORD
16 1
Li	      0.16747      0.10670     -0.03654         0.156540     -0.027972     -0.171739
Li	      2.18953      2.14260     -0.01396         0.128248      0.291353     -0.079505
Li	      0.02935      4.28248     -0.02176         0.240800      0.085172     -0.248905
Li	      2.10519      6.42232      0.05409         0.007056     -0.242475     -0.098288
Ti	      2.10867      4.28836     -2.12804        -0.245464      0.049045      1.829702
Ti	      4.60511      6.42209     -2.42038         0.681750     -0.900261     -0.372619
Ni	      4.41259      4.27705     -0.03278        -0.756134      0.008768     -0.460273
Ni	      4.50629      2.14026     -2.30971        -0.050929      0.613253      0.198851
O	      4.48632      2.16635     -0.17339         0.744345     -0.914802     -0.244724
O	      2.24985      4.28599     -0.16118         0.188190      0.200052     -1.918564
O	      2.36833      2.32199     -2.29670         0.060712      0.126076     -0.660169
O	      4.37920      4.35559     -2.22314        -0.089542      0.880175      0.464420
O	      0.03486      6.43253     -0.03364        -1.850693     -0.417507      0.357680
O	      0.14327      4.28534     -2.26465         1.932819      0.019207      0.084731
O	      6.60397      4.19964      0.00754        -0.553684     -0.315020     -0.100606
O	      0.13262      2.13862      0.06875        -0.594013      0.544937      1.420008
