# total energy = -102.64811923 eV
 
CRYSTAL
PRIMVEC
-2.161181 4.208982 -2.162697 
2.146235 4.192629 2.146656 
6.568291 -0.007350 -2.261039 
PRIMCOORD
16 1
Li	      0.17958      0.12819     -0.02642         0.183779     -0.030159     -0.188425
Li	      2.21094      2.16355     -0.01409         0.155995      0.338195     -0.099295
Li	      0.02964      4.32436     -0.02197         0.275288      0.098518     -0.285796
Li	      2.12578      6.48513      0.05462         0.010880     -0.276746     -0.118507
Ti	      2.12929      4.33030     -2.14885        -0.219070      0.015637      2.066760
Ti	      4.65015      6.48489     -2.44405         0.748791     -1.039731     -0.416176
Ni	      4.45574      4.31888     -0.03311        -0.887228     -0.014143     -0.530870
Ni	      4.55037      2.16119     -2.33230        -0.074589      0.713788      0.243040
O	      4.51966      2.20806     -0.18563         0.862350     -1.018678     -0.305237
O	      2.27185      4.32791     -0.16276         0.222032      0.231669     -2.164722
O	      2.40196      2.36516     -2.30869         0.077680      0.145497     -0.760976
O	      4.42203      4.39819     -2.24488        -0.079787      0.992899      0.547721
O	      0.06724      6.49540     -0.04500        -2.086406     -0.493795      0.441260
O	      0.14468      4.32726     -2.28680         2.187096      0.019849      0.071876
O	      6.66855      4.24072      0.00762        -0.660085     -0.336334     -0.123777
O	      0.16596      2.15950      0.05839        -0.716726      0.653534      1.623126
