# total energy = -102.23119332 eV
 
CRYSTAL
PRIMVEC
-2.171672 4.229414 -2.173196 
2.156653 4.212982 2.157077 
6.600175 -0.007386 -2.272015 
PRIMCOORD
16 1
Li	      0.19180      0.14989     -0.01621         0.210294     -0.034179     -0.203699
Li	      2.23246      2.18461     -0.01423         0.182027      0.375678     -0.114309
Li	      0.02993      4.36645     -0.02219         0.308674      0.113015     -0.322242
Li	      2.14646      6.54825      0.05516         0.015711     -0.310958     -0.138431
Ti	      2.15002      4.37244     -2.16977        -0.184950     -0.031531      2.282012
Ti	      4.69540      6.54801     -2.46784         0.813346     -1.168459     -0.465549
Ni	      4.49910      4.36091     -0.03343        -1.007206     -0.038280     -0.592642
Ni	      4.59465      2.18222     -2.35500        -0.105242      0.809516      0.286783
O	      4.55310      2.25008     -0.19799         0.969015     -1.108974     -0.367837
O	      2.29396      4.37003     -0.16434         0.252583      0.261317     -2.389705
O	      2.43580      2.40863     -2.32068         0.089939      0.175225     -0.853827
O	      4.46507      4.44099     -2.26673        -0.063514      1.089267      0.624509
O	      0.09994      6.55858     -0.05647        -2.310466     -0.568830      0.526780
O	      0.14608      4.36937     -2.30906         2.423112      0.025971      0.053469
O	      6.73346      4.28199      0.00769        -0.761000     -0.352504     -0.143241
O	      0.19962      2.18048      0.04793        -0.832323      0.763725      1.817929
