# total energy = -101.25735058 eV
 
CRYSTAL
PRIMVEC
-2.192654 4.270278 -2.194193 
2.177491 4.253687 2.177918 
6.663945 -0.007458 -2.293967 
PRIMCOORD
16 1
Li	      0.21656      0.19390      0.00452         0.268594     -0.034679     -0.230164
Li	      2.27580      2.22703     -0.01451         0.239688      0.438269     -0.146113
Li	      0.03051      4.45123     -0.02262         0.356967      0.140822     -0.393263
Li	      2.18814      6.67539      0.05623         0.027930     -0.361921     -0.176535
Ti	      2.19177      4.45734     -2.21190        -0.101957     -0.156459      2.653217
Ti	      4.78657      6.67515     -2.51576         0.929988     -1.394431     -0.574780
Ni	      4.58646      4.44558     -0.03408        -1.238918     -0.107847     -0.680832
Ni	      4.68386      2.22459     -2.40072        -0.157794      0.979072      0.368185
O	      4.62033      2.33503     -0.22303         1.162314     -1.248027     -0.480069
O	      2.33850      4.45488     -0.16753         0.292347      0.318009     -2.772185
O	      2.50414      2.49649     -2.34470         0.096988      0.251421     -1.008134
O	      4.55177      4.52722     -2.31074        -0.020785      1.264607      0.754635
O	      0.16626      6.68585     -0.07973        -2.689735     -0.698727      0.679518
O	      0.14892      4.45421     -2.35389         2.840799      0.031692      0.011730
O	      6.86420      4.36513      0.00784        -0.950556     -0.391012     -0.185480
O	      0.26788      2.22275      0.02670        -1.055870      0.969210      2.180271
