# total energy = -100.70873883 eV
 
CRYSTAL
PRIMVEC
-2.203146 4.290710 -2.204691 
2.187909 4.274040 2.188339 
6.695830 -0.007493 -2.304943 
PRIMCOORD
16 1
Li	      0.22911      0.21621      0.01504         0.295662     -0.036678     -0.239650
Li	      2.29763      2.24839     -0.01464         0.271271      0.465699     -0.159473
Li	      0.03080      4.49393     -0.02284         0.376687      0.153204     -0.426611
Li	      2.20913      6.73942      0.05677         0.035883     -0.383186     -0.192839
Ti	      2.21279      4.50010     -2.23312        -0.050696     -0.232517      2.811748
Ti	      4.83248      6.73918     -2.53989         0.984281     -1.492398     -0.631090
Ni	      4.63045      4.48823     -0.03440        -1.344631     -0.148565     -0.714091
Ni	      4.72879      2.24593     -2.42375        -0.185991      1.051773      0.407756
O	      4.65411      2.37796     -0.23572         1.247338     -1.302745     -0.529960
O	      2.36094      4.49761     -0.16914         0.306491      0.346140     -2.932455
O	      2.53863      2.54089     -2.35672         0.094349      0.298715     -1.073522
O	      4.59543      4.57065     -2.33291         0.008589      1.343692      0.806977
O	      0.19990      6.74995     -0.09152        -2.859058     -0.762747      0.751739
O	      0.15035      4.49694     -2.37647         3.026526      0.037806     -0.014561
O	      6.93005      4.40700      0.00792        -1.038168     -0.406732     -0.210667
O	      0.30248      2.24403      0.01593        -1.168532      1.068539      2.346699
