# total energy = -101.55972148 eV
 
CRYSTAL
PRIMVEC
-2.030379 4.148103 -2.031053 
1.946369 4.061021 1.942914 
5.966007 -0.042039 -1.987608 
PRIMCOORD
16 1
Li	      1.91375      3.92494      1.82754        -0.006992     -0.089110      0.411433
Li	      1.90883      1.94743     -0.03808        -0.029449     -0.300944      0.259318
Li	      3.79134      3.92702     -0.02641         0.486104     -0.018101      0.679214
Li	      3.78660      1.94974     -1.89224         0.281624     -0.460364     -0.186280
Ti	      1.76845      5.92284      0.01720         0.615813      2.135372      1.151605
Ti	      1.97254      3.95470     -2.04173        -2.512154     -0.621523     -2.244515
Ni	      5.68347      3.91727     -1.92520         1.197642     -0.334003     -0.667894
Ni	      3.81461      5.91967     -2.01762         1.396753      1.726443     -0.858167
O	      1.86796      5.80403     -1.91166        -0.727978      2.712616     -1.425928
O	      1.87287      4.07321     -0.11311         0.589103     -1.670514      1.775234
O	      1.83156      2.11130     -1.94664         1.003546     -2.674342     -0.048779
O	      3.74976      3.97470     -1.95368         2.174895     -0.957588     -0.399577
O	     -0.00888      5.90252     -0.07109        -2.629551      1.513195      0.242578
O	      0.03083      3.84710     -1.95296        -2.195135      0.508894     -0.684004
O	      5.71483      3.86020      0.01069         0.975428      0.095088      0.583533
O	     -0.01481      2.01425     -0.07547        -0.619649     -1.565119      1.412227
