# total energy = -102.77137149 eV
 
CRYSTAL
PRIMVEC
-2.051419 4.191088 -2.052100 
1.966538 4.103104 1.963048 
6.027831 -0.042475 -2.008205 
PRIMCOORD
16 1
Li	      1.95362      4.00671      1.86562        -0.002399     -0.060832      0.260261
Li	      1.94859      1.98800     -0.03887        -0.028215     -0.196814      0.163883
Li	      3.87032      4.00883     -0.02696         0.333421     -0.011211      0.457368
Li	      3.86549      1.99035     -1.93166         0.170608     -0.300357     -0.132363
Ti	      1.80530      6.04622      0.01756         0.298769      1.384055      0.756425
Ti	      2.01363      4.03709     -2.08426        -1.662413     -0.414094     -1.469503
Ni	      5.80187      3.99887     -1.96530         0.811061     -0.227862     -0.395537
Ni	      3.89408      6.04300     -2.05966         0.927060      1.135990     -0.594306
O	      1.90688      5.92495     -1.95149        -0.475092      1.738611     -0.900221
O	      1.91189      4.15807     -0.11546         0.443015     -1.049430      1.149795
O	      1.86972      2.15528     -1.98719         0.698626     -1.721085      0.006664
O	      3.82787      4.05750     -1.99438         1.322405     -0.655211     -0.267818
O	     -0.00907      6.02549     -0.07257        -1.650092      1.065126      0.176584
O	      0.03147      3.92725     -1.99364        -1.420364      0.331699     -0.521102
O	      5.83388      3.94062      0.01091         0.677527      0.100165      0.415981
O	     -0.01512      2.05621     -0.07705        -0.443919     -1.118751      0.893888
