# total energy = -103.20203829 eV
 
CRYSTAL
PRIMVEC
-2.061939 4.212581 -2.062624 
1.976623 4.124146 1.973114 
6.058743 -0.042692 -2.018504 
PRIMCOORD
16 1
Li	      1.97371      4.04791      1.88480         0.000183     -0.050338      0.196829
Li	      1.96863      2.00844     -0.03927        -0.023893     -0.149738      0.121409
Li	      3.91012      4.05006     -0.02724         0.260565     -0.010275      0.353151
Li	      3.90524      2.01082     -1.95153         0.125407     -0.228213     -0.106685
Ti	      1.82386      6.10840      0.01774         0.175899      1.056173      0.594224
Ti	      2.03434      4.07860     -2.10570        -1.266140     -0.319810     -1.139424
Ni	      5.86153      4.03999     -1.98551         0.627004     -0.175540     -0.282969
Ni	      3.93412      6.10513     -2.08083         0.722082      0.873190     -0.468582
O	      1.92648      5.98587     -1.97155        -0.375752      1.309867     -0.672926
O	      1.93155      4.20083     -0.11665         0.371993     -0.781671      0.872072
O	      1.88895      2.17744     -2.00763         0.549242     -1.297951      0.029221
O	      3.86724      4.09923     -2.01489         0.942692     -0.520658     -0.207110
O	     -0.00916      6.08745     -0.07331        -1.210528      0.851844      0.141570
O	      0.03180      3.96763     -2.01414        -1.077711      0.245486     -0.440565
O	      5.89387      3.98114      0.01103         0.535350      0.103402      0.362448
O	     -0.01528      2.07735     -0.07784        -0.356393     -0.905768      0.647339
