# total energy = -103.75182175 eV
 
CRYSTAL
PRIMVEC
-2.082980 4.255566 -2.083671 
1.996793 4.166229 1.993248 
6.120566 -0.043128 -2.039101 
PRIMCOORD
16 1
Li	      2.01420      4.13094      1.92346         0.006756     -0.029235      0.090052
Li	      2.00901      2.04964     -0.04008        -0.007366     -0.064919      0.053651
Li	      3.99032      4.13313     -0.02780         0.115631     -0.005265      0.165519
Li	      3.98534      2.05207     -1.99156         0.047334     -0.097730     -0.055571
Ti	      1.86127      6.23370      0.01811        -0.014369      0.483152      0.331773
Ti	      2.07606      4.16226     -2.14889        -0.529616     -0.151665     -0.579214
Ni	      5.98176      4.12286     -2.02624         0.280793     -0.081315     -0.101826
Ni	      4.01482      6.23036     -2.12352         0.353762      0.404479     -0.235720
O	      1.96601      6.10865     -2.01199        -0.209592      0.558011     -0.280911
O	      1.97116      4.28700     -0.11904         0.229049     -0.309966      0.373339
O	      1.92769      2.22211     -2.04881         0.252239     -0.551458      0.071251
O	      3.94656      4.18331     -2.05622         0.277461     -0.287689     -0.107031
O	     -0.00935      6.21232     -0.07482        -0.415853      0.454837      0.074558
O	      0.03245      4.04901     -2.05546        -0.474202      0.072123     -0.268033
O	      6.01477      4.06280      0.01125         0.267594      0.102734      0.289457
O	     -0.01559      2.11997     -0.07944        -0.179620     -0.496093      0.178705
