# total energy = -90.93475027 eV
 
CRYSTAL
PRIMVEC
0.000510 2.066799 2.068986 
6.220604 0.040039 -2.106904 
-2.090367 6.450623 -4.387876 
PRIMCOORD
16 1
Li	      4.11267      2.31386     -2.31101         0.008734     -0.009925      0.009390
Li	     -0.11224      4.37930     -0.23917         0.015619      0.002392     -0.009543
Li	      2.14548      4.37871     -2.30748         0.005171     -0.004301      0.000142
Li	      4.13905      4.16668     -4.15775         0.008316      0.007658     -0.019384
Mn	      6.14037      2.12197     -0.05039         0.007127      0.019756     -0.027789
Mn	      2.13419      2.12601     -0.06093        -0.031197      0.048886     -0.028746
Ni	      0.02697      6.28313     -2.14824        -0.080215      0.064042     -0.059088
Ni	      2.09118      6.37022     -4.30556         0.056069      0.014872     -0.020232
O	     -0.02887      4.34280     -2.27558        -0.011815     -0.128230      0.132826
O	      0.06949      1.97203      0.09890        -0.006452     -0.001655     -0.008559
O	      4.15348      6.61053     -4.54509         0.035453      0.009692     -0.014626
O	      4.14041      4.27094     -2.19799        -0.008938     -0.018028      0.018940
O	      0.00091      6.54708     -4.48839        -0.063372      0.048007     -0.039999
O	      4.10517      2.02855      0.03821        -0.065987      0.072369     -0.065008
O	      1.99182      6.44925     -2.31683         0.122084     -0.091594      0.097863
O	      2.07081      1.96616     -1.96713         0.009404     -0.033941      0.033810
