# total energy = -92.08436727 eV
 
CRYSTAL
PRIMVEC
0.000186 2.076402 2.075964 
6.032540 6.281962 -4.204273 
-4.051237 2.115080 -2.115034 
PRIMCOORD
16 1
Li	     -1.95974      4.09723     -2.02277         0.014456      0.006687     -0.007998
Li	     -0.07554      6.23977     -2.08607        -0.025495     -0.002381      0.001919
Li	     -1.97214      2.13901     -0.06426         0.024992      0.001973     -0.002878
Li	     -0.08787      4.28116     -0.12797        -0.014296     -0.006238      0.008159
Mn	     -3.98508      4.21097     -0.06031         0.075971      0.039705     -0.045079
Mn	      1.93731      4.16772     -2.09045        -0.073784     -0.040816      0.045248
Ni	      1.99225      6.29209     -4.21553        -0.000390     -0.000242      0.000411
Ni	      4.01801      6.27285     -2.12003        -0.001100     -0.002027      0.000166
O	      4.05277      6.24778     -4.17057         0.136250      0.088227     -0.098041
O	     -0.06826      6.33634     -4.26051        -0.135237     -0.086110      0.098186
O	      2.00773      8.43144     -4.28048         0.121679      0.112205     -0.103801
O	     -2.15322      4.19359     -0.04356        -0.067284     -0.011935      0.015659
O	      0.10552      4.18494     -2.10726         0.065637      0.013042     -0.014373
O	      1.97697      6.22918     -2.07453        -0.120881     -0.112135      0.103239
O	      0.01274      1.93015      0.14350        -0.007405     -0.047453      0.051613
O	      1.99081      4.33347     -0.17925         0.006886      0.047497     -0.052430
