# total energy = -103.05815431 eV
 
CRYSTAL
PRIMVEC
-2.156620 4.406016 -2.157336 
2.067387 4.313520 2.063717 
6.336950 -0.044653 -2.111190 
PRIMCOORD
16 1
Li	      0.09174      0.11467     -0.00185         0.071708      0.003914     -0.122410
Li	      2.15357      2.19712     -0.04296         0.101611      0.147905     -0.081746
Li	      4.27745      4.43054     -0.02980        -0.317266     -0.021298     -0.340314
Li	      4.27211      2.19973     -2.13486        -0.161113      0.246625      0.099374
Ti	      1.99520      6.68226      0.01941        -0.257444     -0.849312     -0.161345
Ti	      2.22545      4.46176     -2.30351         1.532610      0.263316      0.558932
Ni	      0.07524      4.46418     -0.06085        -0.745784      0.146319      0.244094
Ni	      4.30371      6.67868     -2.27632        -0.594896     -0.755846      0.369392
O	      2.10747      6.54822     -2.15677         0.044191     -1.205006      0.599711
O	      2.11301      4.59547     -0.12761        -0.202789      0.729584     -0.831167
O	      2.06640      2.38200     -2.19623        -0.677078      1.283693      0.171720
O	      4.23054      4.48433     -2.20417        -1.288071      0.234078      0.179572
O	     -0.01002      6.65934     -0.08020         1.681873     -0.604784     -0.134017
O	      0.03478      4.34036     -2.20336         0.990139     -0.455317      0.299087
O	      6.44757      4.35514      0.01206        -0.615655      0.096115      0.350413
O	     -0.01672      2.27251     -0.08515         0.437966      0.740014     -1.201296
