# total energy = -102.69885823 eV
 
CRYSTAL
PRIMVEC
-2.167140 4.427508 -2.167860 
2.077471 4.334561 2.073784 
6.367862 -0.044871 -2.121489 
PRIMCOORD
16 1
Li	      0.10277      0.13694      0.00825         0.087200      0.011415     -0.138397
Li	      2.17463      2.21861     -0.04339         0.119653      0.170727     -0.094309
Li	      4.31929      4.47387     -0.03009        -0.369686     -0.023463     -0.395107
Li	      4.31389      2.22124     -2.15574        -0.184734      0.284252      0.116275
Ti	      2.01471      6.74760      0.01960        -0.258669     -0.973180     -0.198275
Ti	      2.24722      4.50540     -2.32604         1.767640      0.304084      0.640883
Ni	      0.10704      4.50762     -0.07179        -0.876089      0.169057      0.275069
Ni	      4.34580      6.74400     -2.29858        -0.706730     -0.872717      0.429239
O	      2.12808      6.61225     -2.17787         0.055234     -1.369202      0.681956
O	      2.13367      4.64042     -0.12886        -0.251311      0.815171     -0.954847
O	      2.08661      2.40530     -2.21771        -0.794923      1.471115      0.186653
O	      4.27192      4.52818     -2.22573        -1.430570      0.276615      0.212573
O	     -0.01012      6.72446     -0.08098         1.911921     -0.715142     -0.163290
O	      0.03513      4.38282     -2.22491         1.139888     -0.528069      0.373782
O	      6.51062      4.39774      0.01218        -0.734239      0.097027      0.387526
O	     -0.01688      2.29474     -0.08599         0.525415      0.882311     -1.359731
