# total energy = -102.28752163 eV
 
CRYSTAL
PRIMVEC
-2.177661 4.449001 -2.178383 
2.087556 4.355603 2.083850 
6.398774 -0.045088 -2.131787 
PRIMCOORD
16 1
Li	      0.11391      0.15941      0.01844         0.101917      0.012054     -0.152845
Li	      2.19580      2.24020     -0.04381         0.136652      0.194507     -0.103914
Li	      4.36133      4.51741     -0.03038        -0.421583     -0.028700     -0.448532
Li	      4.35588      2.24286     -2.17672        -0.206467      0.320627      0.136180
Ti	      2.03433      6.81328      0.01979        -0.254536     -1.081976     -0.231230
Ti	      2.26909      4.54925     -2.34868         1.990026      0.342091      0.707238
Ni	      0.13914      4.55128     -0.08284        -0.998286      0.189725      0.296457
Ni	      4.38809      6.80963     -2.32095        -0.810561     -0.976129      0.479064
O	      4.32645      2.22761     -0.02068         0.053781     -1.523784      0.750824
O	      2.15443      4.68558     -0.13011        -0.293458      0.892216     -1.064787
O	      2.10692      2.42871     -2.23930        -0.903630      1.639481      0.197469
O	      4.31350      4.57226     -2.24739        -1.558474      0.313255      0.245383
O	     -0.01022      6.78991     -0.08177         2.131425     -0.817823     -0.187452
O	      0.03547      4.42547     -2.24657         1.276225     -0.591346      0.449326
O	      6.57399      4.44054      0.01230        -0.856426      0.095207      0.432360
O	     -0.01704      2.31707     -0.08682         0.613394      1.020595     -1.505540
