# total energy = -100.78191972 eV
 
CRYSTAL
PRIMVEC
-2.209221 4.513479 -2.209954 
2.117811 4.418728 2.114051 
6.491510 -0.045742 -2.162683 
PRIMCOORD
16 1
Li	      0.14793      0.22811      0.04962         0.156284      0.016330     -0.189338
Li	      2.25990      2.30561     -0.04509         0.183417      0.251040     -0.123915
Li	      4.48866      4.64930     -0.03127        -0.565027     -0.046070     -0.590297
Li	      4.48305      2.30834     -2.24027        -0.285347      0.415869      0.183906
Ti	      2.09372      7.01219      0.02037        -0.220821     -1.342684     -0.311665
Ti	      2.33533      4.68206     -2.41725         2.581978      0.426355      0.816020
Ni	      0.23728      4.68349     -0.11660        -1.350557      0.228753      0.346784
Ni	      4.51621      7.00845     -2.38871        -1.114365     -1.236116      0.592651
O	      4.42075      2.35806     -0.05331         0.044364     -1.878811      0.911727
O	      2.21733      4.82238     -0.13391        -0.385082      1.072131     -1.330209
O	      2.16843      2.49962     -2.30467        -1.204385      2.065753      0.244274
O	      4.43943      4.70574     -2.31301        -1.850909      0.406184      0.341851
O	     -0.01052      6.98814     -0.08416         2.725822     -1.063154     -0.244609
O	      0.03650      4.55468     -2.31215         1.628665     -0.781950      0.655296
O	      6.76592      4.57019      0.01266        -1.227145      0.083607      0.587744
O	     -0.01754      2.38472     -0.08936         0.883109      1.382764     -1.890220
