# total energy = -98.47166577 eV
 
CRYSTAL
PRIMVEC
-1.952258 4.046888 -1.956710 
1.968065 4.062266 1.969514 
5.878348 0.009403 -1.961073 
PRIMCOORD
16 1
Li	      1.90991      3.88147      1.83466        -0.222175     -0.069411      1.348001
Li	      1.92822      1.93855     -0.05214        -0.101593     -0.795739      0.224656
Li	      3.66701      3.85173      0.06712         1.177700     -0.096927      0.233966
Li	      3.68501      1.90862     -1.81960         0.160237     -0.332027     -0.312403
Ti	      0.04342      3.84771     -0.03624        -4.879540     -0.345980      3.578867
Ti	      3.69705      5.78709     -1.80788         2.242589      2.616012     -3.227194
Ni	      1.84199      5.78084      0.03735        -1.998933      2.734163      2.482902
Ni	      1.89850      3.85382     -1.88134         0.104239     -1.948362     -3.410143
O	      1.94858      5.72390     -1.84040        -5.512883      2.229583     -1.598309
O	      1.79181      3.91078     -0.00350         3.725304     -2.068261      2.567179
O	      3.72106      5.84201     -0.06435         1.538857      0.558806      5.083135
O	      3.78989      3.99253     -1.87665         0.557845     -3.175501     -1.246982
O	      5.53497      5.65094     -1.83033         3.811556      2.960068     -0.764885
O	      0.01940      3.79279     -1.77971        -3.023607     -0.020939     -4.278174
O	      5.61215      3.73197     -0.04914         1.433669      0.730810      1.416589
O	      5.56739      2.06696     -1.79904         0.986735     -2.976295     -2.097205
