# total energy = -99.60409409 eV
 
CRYSTAL
PRIMVEC
-1.962533 4.068188 -1.967008 
1.978424 4.083647 1.979880 
5.909287 0.009453 -1.971395 
PRIMCOORD
16 1
Li	      1.93007      3.92243      1.85402        -0.212973     -0.066513      1.171206
Li	      1.94856      1.95901     -0.05269        -0.090531     -0.689947      0.195269
Li	      3.70571      3.89238      0.06783         1.035098     -0.068788      0.187517
Li	      3.72391      1.92876     -1.83880         0.151258     -0.288327     -0.272349
Ti	      0.04387      3.88832     -0.03662        -4.218031     -0.319548      3.079635
Ti	      3.73607      5.84817     -1.82696         1.915693      2.179616     -2.704880
Ni	      1.86143      5.84185      0.03774        -1.706775      2.339297      2.116319
Ni	      1.91854      3.89449     -1.90120         0.105353     -1.639002     -2.956289
O	      1.96914      5.78431     -1.85982        -4.725150      1.923865     -1.353592
O	      1.81073      3.95206     -0.00354         3.172050     -1.795280      2.235719
O	      3.76033      5.90366     -0.06503         1.313107      0.461129      4.357164
O	      3.82990      4.03467     -1.89645         0.425250     -2.683219     -1.094296
O	      5.59340      5.71059     -1.84965         3.282715      2.624297     -0.678137
O	      0.01960      3.83282     -1.79849        -2.625717      0.005059     -3.648745
O	      5.67138      3.77136     -0.04966         1.283238      0.647218      1.218846
O	      5.62615      2.08878     -1.81802         0.895414     -2.629858     -1.853385
