# total energy = -101.41448109 eV
 
CRYSTAL
PRIMVEC
-1.983083 4.110787 -1.987605 
1.999140 4.126407 2.000612 
5.971164 0.009552 -1.992038 
PRIMCOORD
16 1
Li	      1.97071      4.00501      1.89305        -0.182806     -0.050821      0.849117
Li	      1.98959      2.00025     -0.05379        -0.071601     -0.500593      0.137630
Li	      3.78372      3.97433      0.06926         0.775244     -0.027164      0.110857
Li	      3.80230      1.96937     -1.87751         0.127052     -0.199903     -0.199695
Ti	      0.04480      3.97017     -0.03739        -3.031109     -0.262575      2.191913
Ti	      3.81472      5.97129     -1.86542         1.329705      1.444084     -1.809227
Ni	      1.90062      5.96483      0.03854        -1.194063      1.644744      1.479739
Ni	      1.95893      3.97648     -1.94122         0.106373     -1.115955     -2.133439
O	      2.01060      5.90608     -1.89898        -3.315917      1.384023     -0.937086
O	      1.84884      4.03526     -0.00361         2.193711     -1.311473      1.641832
O	      3.83950      6.02795     -0.06640         0.922676      0.294745      3.056094
O	      3.91052      4.11961     -1.93638         0.234260     -1.829387     -0.810373
O	      5.71114      5.83081     -1.88859         2.333374      1.968917     -0.521950
O	      0.02001      3.91350     -1.83635        -1.912240      0.038821     -2.527535
O	      5.79077      3.85076     -0.05071         0.980213      0.486055      0.854253
O	      5.74459      2.13275     -1.85630         0.705126     -1.963520     -1.382131
