# total energy = -102.11173454 eV
 
CRYSTAL
PRIMVEC
-1.993358 4.132086 -1.997904 
2.009498 4.147788 2.010978 
6.002103 0.009601 -2.002359 
PRIMCOORD
16 1
Li	      1.99118      4.04661      1.91272        -0.162776     -0.047124      0.702020
Li	      2.01026      2.02104     -0.05436        -0.060478     -0.414311      0.110230
Li	      3.82303      4.01562      0.06998         0.652750     -0.009214      0.083343
Li	      3.84181      1.98983     -1.89702         0.110332     -0.162476     -0.163555
Ti	      0.04527      4.01142     -0.03778        -2.497888     -0.232794      1.794511
Ti	      3.85435      6.03332     -1.88480         1.069148      1.137689     -1.430379
Ni	      1.92036      6.02681      0.03894        -0.971862      1.344484      1.205168
Ni	      1.97928      4.01779     -1.96139         0.101380     -0.892620     -1.766172
O	      2.03149      5.96743     -1.91871        -2.690768      1.148652     -0.764158
O	      1.86805      4.07719     -0.00365         1.759317     -1.093608      1.371902
O	      3.87939      6.09057     -0.06709         0.760647      0.219598      2.475483
O	      3.95115      4.16240     -1.95649         0.170072     -1.463362     -0.679284
O	      5.77048      5.89139     -1.90821         1.906755      1.649421     -0.442349
O	      0.02023      3.95416     -1.85543        -1.593982      0.053558     -2.032107
O	      5.85094      3.89077     -0.05123         0.836106      0.401795      0.685319
O	      5.80428      2.15491     -1.87558         0.611247     -1.639689     -1.149971
