# total energy = -91.38096346 eV
 
CRYSTAL
PRIMVEC
0.000406 2.081465 2.080124 
8.337732 -4.191653 4.190225 
2.069658 2.089320 -4.167620 
PRIMCOORD
16 1
Li	      2.22827      1.98579      0.09108        -0.001957     -0.003635      0.007694
Li	      2.16890     -0.00378      2.08407        -0.017381     -0.007753      0.005097
Li	      6.16000      2.06531      0.01620         0.016288      0.007549     -0.005945
Li	      6.10123      0.07392      2.00697         0.002038      0.005643     -0.005000
Mn	      0.10776     -0.03878      0.03731         0.055501     -0.037843      0.045126
Mn	      8.22086      0.02022     -0.01656        -0.055955      0.035428     -0.045446
Ni	      4.16436     -0.01080      0.00913         0.001560      0.000979     -0.000512
Ni	      8.33321     -2.10494      2.10574         0.000669     -0.001447     -0.000477
O	      2.02326      2.16620     -2.16606         0.155449      0.026489     -0.030713
O	      6.39083     -0.00802      0.00930         0.094105     -0.008054      0.005379
O	      6.30522     -2.18455      2.18738        -0.154301     -0.027671      0.025527
O	      8.44960     -0.00960      2.09141         0.015758      0.084741     -0.094426
O	      8.21700     -2.11874      4.20001        -0.014778     -0.086612      0.093802
O	      1.93787     -0.01236      0.01009        -0.094569      0.011280     -0.003128
O	      4.17001      1.92177      0.15656         0.003741      0.127498     -0.119110
O	      4.15920      0.13818      1.94152        -0.006168     -0.126592      0.122132
