# total energy = -102.68201850 eV
 
CRYSTAL
PRIMVEC
-2.003633 4.153385 -2.008202 
2.019857 4.169168 2.021343 
6.033042 0.009651 -2.012681 
PRIMCOORD
16 1
Li	      2.01176      4.08844      1.93249        -0.141332     -0.042472      0.563474
Li	      2.03104      2.04192     -0.05491        -0.048610     -0.333434      0.085775
Li	      3.86255      4.05713      0.07070         0.530813      0.000126      0.061587
Li	      3.88152      2.01040     -1.91663         0.096210     -0.127515     -0.129688
Ti	      0.04573      4.05288     -0.03817        -1.997470     -0.199279      1.425770
Ti	      3.89419      6.09569     -1.90428         0.830291      0.871140     -1.091620
Ni	      1.94022      6.08910      0.03934        -0.766781      1.065222      0.956219
Ni	      1.99974      4.05932     -1.98166         0.090185     -0.692830     -1.419874
O	      2.05248      6.02912     -1.93854        -2.113847      0.930112     -0.613188
O	      1.88736      4.11932     -0.00369         1.364857     -0.892139      1.119996
O	      3.91949      6.15352     -0.06778         0.612753      0.150356      1.940523
O	      3.99199      4.20543     -1.97672         0.130653     -1.129356     -0.554966
O	      5.83012      5.95228     -1.92794         1.505586      1.336922     -0.365627
O	      0.02043      3.99503     -1.87461        -1.301450      0.067941     -1.580109
O	      5.91141      3.93098     -0.05177         0.691251      0.319814      0.523704
O	      5.86427      2.17718     -1.89497         0.516891     -1.324608     -0.921972
