# total energy = -103.13266915 eV
 
CRYSTAL
PRIMVEC
-2.013908 4.174685 -2.018501 
2.030215 4.190549 2.031709 
6.063981 0.009700 -2.023002 
PRIMCOORD
16 1
Li	      2.03245      4.13048      1.95236        -0.113485     -0.034980      0.435115
Li	      2.05192      2.06293     -0.05548        -0.038713     -0.259236      0.062399
Li	      3.90226      4.09884      0.07143         0.414434      0.004595      0.044339
Li	      3.92143      2.03107     -1.93633         0.075536     -0.093755     -0.098482
Ti	      0.04620      4.09456     -0.03857        -1.529908     -0.164597      1.081893
Ti	      3.93423      6.15836     -1.92386         0.611202      0.637876     -0.791061
Ni	      1.96016      6.15171      0.03975        -0.585695      0.811736      0.726138
Ni	      2.02030      4.10106     -2.00204         0.080194     -0.518988     -1.103271
O	      2.07359      6.09112     -1.95847        -1.581064      0.729145     -0.475166
O	      1.90677      4.16168     -0.00373         1.000053     -0.704172      0.884567
O	      3.95978      6.21680     -0.06848         0.484800      0.087779      1.448626
O	      4.03304      4.24867     -1.99704         0.104611     -0.827254     -0.435942
O	      5.89008      6.01349     -1.94776         1.135923      1.031588     -0.288879
O	      0.02064      4.03611     -1.89389        -1.027987      0.078908     -1.165040
O	      5.97220      3.97140     -0.05230         0.555133      0.243427      0.375281
O	      5.92458      2.19957     -1.91446         0.414964     -1.022073     -0.700516
