# total energy = -103.47225610 eV
 
CRYSTAL
PRIMVEC
-2.024183 4.195984 -2.028799 
2.040573 4.211929 2.042075 
6.094919 0.009750 -2.033323 
PRIMCOORD
16 1
Li	      2.05324      4.17273      1.97233        -0.087672     -0.029681      0.311926
Li	      2.07291      2.08402     -0.05605        -0.028666     -0.191147      0.038263
Li	      3.94219      4.14077      0.07216         0.306021      0.011160      0.031838
Li	      3.96154      2.05185     -1.95614         0.056310     -0.063775     -0.065702
Ti	      0.04667      4.13645     -0.03896        -1.091413     -0.129597      0.759534
Ti	      3.97448      6.22137     -1.94355         0.409906      0.438057     -0.526037
Ni	      1.98022      6.21465      0.04015        -0.419074      0.581921      0.525155
Ni	      2.04097      4.14301     -2.02252         0.064751     -0.364293     -0.806961
O	      2.09480      6.15342     -1.97851        -1.091247      0.547702     -0.362775
O	      1.92627      4.20426     -0.00377         0.669694     -0.535668      0.666996
O	      4.00029      6.28040     -0.06918         0.371071      0.035002      0.995423
O	      4.07429      4.29213     -2.01748         0.093893     -0.557847     -0.322260
O	      5.95033      6.07500     -1.96768         0.787033      0.738369     -0.215063
O	      0.02085      4.07740     -1.91326        -0.770946      0.089891     -0.784804
O	      6.03329      4.01203     -0.05283         0.414133      0.159032      0.233940
O	      5.98518      2.22207     -1.93404         0.316208     -0.729126     -0.479475
