# total energy = -103.70762333 eV
 
CRYSTAL
PRIMVEC
-2.034458 4.217284 -2.039098 
2.050931 4.233309 2.052441 
6.125858 0.009799 -2.043645 
PRIMCOORD
16 1
Li	      2.07414      4.21520      1.99241        -0.060311     -0.026652      0.195665
Li	      2.09401      2.10524     -0.05662        -0.018170     -0.125667      0.018110
Li	      3.98231      4.18292      0.07289         0.196216      0.015268      0.023696
Li	      4.00187      2.07273     -1.97605         0.038229     -0.034424     -0.037202
Ti	      0.04715      4.17854     -0.03935        -0.677865     -0.089550      0.458967
Ti	      4.01493      6.28468     -1.96333         0.227404      0.269232     -0.291957
Ni	      2.00037      6.27790      0.04057        -0.273405      0.372431      0.340784
Ni	      2.06174      4.18518     -2.04311         0.046950     -0.228838     -0.526914
O	      2.11613      6.21606     -1.99865        -0.637862      0.384882     -0.261997
O	      1.94588      4.24705     -0.00380         0.366261     -0.383505      0.465375
O	      4.04101      6.34432     -0.06988         0.276045     -0.014435      0.578961
O	      4.11576      4.33582     -2.03801         0.102925     -0.320854     -0.212035
O	      6.01089      6.13684     -1.98771         0.458192      0.456184     -0.140758
O	      0.02107      4.11890     -1.93274        -0.531138      0.091037     -0.437471
O	      6.09470      4.05287     -0.05337         0.277227      0.078389      0.095165
O	      6.04610      2.24469     -1.95372         0.209304     -0.443501     -0.268389
