# total energy = -103.84674232 eV
 
CRYSTAL
PRIMVEC
-2.044733 4.238583 -2.049396 
2.061289 4.254690 2.062807 
6.156797 0.009849 -2.053966 
PRIMCOORD
16 1
Li	      2.09514      4.25789      2.01258        -0.030395     -0.021548      0.084361
Li	      2.11521      2.12655     -0.05719        -0.004407     -0.064887     -0.000057
Li	      4.02264      4.22528      0.07363         0.092410      0.014864      0.019866
Li	      4.04239      2.09372     -1.99606         0.017805     -0.008095     -0.007550
Ti	      0.04763      4.22086     -0.03975        -0.286153     -0.050283      0.177021
Ti	      4.05559      6.34833     -1.98321         0.062754      0.127344     -0.087047
Ni	      2.02063      6.34147      0.04098        -0.136036      0.182388      0.183151
Ni	      2.08262      4.22757     -2.06380         0.030553     -0.106752     -0.272902
O	      2.13755      6.27900     -2.01889        -0.224344      0.235205     -0.181577
O	      1.96558      4.29006     -0.00384         0.091382     -0.238775      0.276787
O	      4.08193      6.40857     -0.07059         0.189064     -0.060931      0.193577
O	      4.15744      4.37972     -2.05865         0.120766     -0.109574     -0.106026
O	      6.07176      6.19898     -2.00784         0.145882      0.182351     -0.068948
O	      0.02127      4.16061     -1.95231        -0.312808      0.095819     -0.122066
O	      6.15642      4.09391     -0.05391         0.140971      0.000524     -0.030162
O	      6.10733      2.26742     -1.97351         0.102554     -0.177650     -0.058427
