# total energy = -103.74311174 eV
 
CRYSTAL
PRIMVEC
-2.075558 4.302481 -2.080292 
2.092364 4.318831 2.093905 
6.249613 0.009997 -2.084931 
PRIMCOORD
16 1
Li	      0.06643      0.06841     -0.02018         0.072962     -0.011387     -0.212329
Li	      2.17947      2.19115     -0.05893         0.027648      0.090469     -0.050372
Li	      4.14483      4.35363      0.07587        -0.195478     -0.001331      0.026410
Li	      4.16519      2.15732     -2.05670        -0.044802      0.067448      0.070563
Ti	      0.04907      4.34908     -0.04096         0.772119      0.074555     -0.574636
Ti	      4.17879      6.54117     -2.04345        -0.333271     -0.162486      0.373977
Ni	      2.08201      6.53411      0.04222         0.206359     -0.290884     -0.203773
Ni	      2.14589      4.35599     -2.12649        -0.031310      0.148940      0.386886
O	      2.20249      6.46975     -2.08022         0.827216     -0.130203      0.005507
O	      2.02529      4.42038     -0.00396        -0.583238      0.132024     -0.210684
O	      2.11357      2.28441     -2.16664        -0.010865     -0.169295     -0.777101
O	      4.28373      4.51277     -2.12118         0.221048      0.393712      0.191315
O	      6.25621      6.38729     -2.06884        -0.689072     -0.557585      0.143980
O	      0.02192      4.28701     -2.01161         0.253390      0.100739      0.649937
O	      6.34344      4.21827     -0.05555        -0.258440     -0.230475     -0.353474
O	      6.29285      2.33630     -2.03346        -0.234265      0.545757      0.533795
