# total energy = -103.55527074 eV
 
CRYSTAL
PRIMVEC
-2.085834 4.323781 -2.090590 
2.102722 4.340211 2.104270 
6.280551 0.010047 -2.095252 
PRIMCOORD
16 1
Li	      0.07749      0.09057     -0.00997         0.107963     -0.007677     -0.302029
Li	      2.20110      2.21291     -0.05951         0.039762      0.135112     -0.064620
Li	      4.18597      4.39684      0.07662        -0.287196     -0.011432      0.032991
Li	      4.20654      2.17874     -2.07711        -0.060398      0.092038      0.091873
Ti	      0.04956      4.39225     -0.04137         1.093572      0.116360     -0.796108
Ti	      4.22027      6.60610     -2.06374        -0.433729     -0.219603      0.484985
Ni	      2.10268      6.59897      0.04264         0.295996     -0.416153     -0.303212
Ni	      2.16718      4.39922     -2.14760        -0.054977      0.204309      0.577004
O	      2.22435      6.53396     -2.10086         1.121227     -0.227628      0.047600
O	      2.04539      4.46426     -0.00400        -0.767774      0.234297     -0.354787
O	      2.14495      2.32857     -2.17773        -0.057374     -0.197028     -1.048760
O	      4.32625      4.55757     -2.14224         0.263765      0.520607      0.287150
O	      0.03775      6.44064      0.00588        -0.940082     -0.775927      0.211310
O	      0.02214      4.32956     -2.03158         0.415393      0.103359      0.860246
O	      6.40640      4.26014     -0.05610        -0.390679     -0.304359     -0.443627
O	      0.07476      2.34944      0.04161        -0.345470      0.753725      0.719983
