# total energy = -103.29940836 eV
 
CRYSTAL
PRIMVEC
-2.096109 4.345080 -2.100888 
2.113081 4.361591 2.114636 
6.311490 0.010096 -2.105573 
PRIMCOORD
16 1
Li	      0.08866      0.11295      0.00035         0.144227     -0.004004     -0.388358
Li	      2.22285      2.23476     -0.06010         0.050578      0.176520     -0.077251
Li	      4.22732      4.44027      0.07738        -0.372918     -0.022756      0.042686
Li	      4.24808      2.20026     -2.09763        -0.080811      0.114986      0.116155
Ti	      0.05005      4.43563     -0.04178         1.400010      0.158490     -1.003926
Ti	      4.26195      6.67135     -2.08412        -0.520068     -0.261545      0.578933
Ni	      2.12344      6.66414      0.04306         0.379751     -0.525058     -0.384292
Ni	      2.18859      4.44267     -2.16881        -0.077572      0.249841      0.748442
O	      4.34243      2.25341     -0.02072         1.385546     -0.319311      0.076331
O	      2.06560      4.50834     -0.00404        -0.927814      0.331665     -0.482526
O	      2.17655      2.37306     -2.18882        -0.097009     -0.226947     -1.290980
O	      4.36898      4.60258     -2.16340         0.313526      0.630786      0.377575
O	      0.06921      6.50430     -0.00443        -1.181666     -0.977331      0.274892
O	      0.02236      4.37232     -2.05164         0.569331      0.102658      1.044966
O	      6.46967      4.30221     -0.05665        -0.523328     -0.377512     -0.525786
O	      0.10659      2.37269      0.03165        -0.461782      0.949517      0.893139
