# total energy = -102.98013583 eV
 
CRYSTAL
PRIMVEC
-2.106384 4.366380 -2.111187 
2.123439 4.382972 2.125002 
6.342429 0.010146 -2.115895 
PRIMCOORD
16 1
Li	      0.09995      0.13555      0.01077         0.183474      0.001077     -0.469110
Li	      2.24469      2.25672     -0.06069         0.060101      0.214574     -0.088855
Li	      4.26886      4.48391      0.07814        -0.456800     -0.034978      0.053328
Li	      4.28983      2.22188     -2.11824        -0.100876      0.136334      0.137739
Ti	      0.05054      4.47922     -0.04219         1.694075      0.199758     -1.198325
Ti	      4.30384      6.73691     -2.10460        -0.591428     -0.289755      0.657306
Ni	      2.14431      6.72963      0.04348         0.461771     -0.628125     -0.455290
Ni	      2.21010      4.48634     -2.19012        -0.101270      0.284429      0.903718
O	      4.37478      2.29696     -0.03128         1.632495     -0.392689      0.101483
O	      2.08590      4.55265     -0.00408        -1.074597      0.411352     -0.603863
O	      2.20835      2.41786     -2.19991        -0.127015     -0.245939     -1.509670
O	      4.41192      4.64781     -2.18466         0.362102      0.724607      0.464546
O	      0.10099      6.56828     -0.01485        -1.414820     -1.163504      0.339895
O	      0.02258      4.41529     -2.07181         0.704967      0.102519      1.205343
O	      6.53326      4.34450     -0.05721        -0.650349     -0.450526     -0.598631
O	      0.13873      2.39606      0.02159        -0.581829      1.130865      1.060385
