# total energy = -89.30163044 eV
 
CRYSTAL
PRIMVEC
0.000120 2.113633 -2.113651 
-0.000061 2.113623 2.113640 
16.376718 0.000272 -0.000659 
PRIMCOORD
16 1
Li	      2.34049      2.11378      0.00206         0.011378      0.000883     -0.001865
Li	      4.17135      2.11473     -2.11191        -0.057326      0.000774     -0.001669
Li	      8.10937      0.00386      0.00127         0.059022     -0.002909     -0.000275
Li	      9.94271      2.11744      0.00036        -0.016956     -0.000790     -0.000312
Mn	      0.17594      2.11488     -2.11223         0.160342     -0.000186     -0.000276
Mn	     12.10587      0.00302     -0.00003        -0.155602     -0.001305      0.000303
Ni	      6.14033      2.11613      0.00146         0.003977      0.001199      0.001300
Ni	     14.32928      2.11586      0.00017         0.000513      0.001203      0.000915
O	     14.32924      0.00229      0.00021        -0.003062     -0.000883      0.000990
O	     16.34683      2.11521      0.00073         0.119032      0.000138      0.000095
O	     10.32424      0.00338     -0.00017         0.039380      0.002442      0.000876
O	     12.31144      2.11662     -0.00006        -0.117732     -0.000201      0.000770
O	      6.14024      0.00269      0.00160        -0.001248     -0.000341      0.000182
O	      7.98114      2.11712      0.00138         0.288404     -0.000612     -0.000384
O	      1.95760      2.11435     -2.11189        -0.039966      0.000019     -0.000664
O	      4.29965      2.11524      0.00158        -0.290156      0.000570      0.000015
