# total energy = -101.68877851 eV
 
CRYSTAL
PRIMVEC
-2.137209 4.430278 -2.142082 
2.154514 4.447113 2.156100 
6.435245 0.010294 -2.146859 
PRIMCOORD
16 1
Li	      0.13442      0.20463      0.04264         0.304631      0.004653     -0.692945
Li	      2.31087      2.32326     -0.06248         0.096614      0.313856     -0.118834
Li	      4.39472      4.61611      0.08044        -0.686803     -0.076282      0.095099
Li	      4.41630      2.28738     -2.18069        -0.146019      0.203987      0.197093
Ti	      0.05203      4.61128     -0.04343         2.502157      0.312911     -1.710341
Ti	      4.43072      6.93554     -2.16665        -0.729850     -0.308711      0.810905
Ni	      2.20753      6.92804      0.04476         0.666146     -0.866929     -0.588838
Ni	      2.27526      4.61860     -2.25469        -0.158098      0.324446      1.299459
O	      4.47249      2.42952     -0.06355         2.232433     -0.571416      0.129407
O	      2.14739      4.68687     -0.00420        -1.415103      0.620735     -0.911914
O	      2.30499      2.55423     -2.23322        -0.196258     -0.293700     -2.051098
O	      4.54199      4.78484     -2.24907         0.492123      0.937264      0.712389
O	      0.19814      6.76208     -0.04670        -2.051057     -1.621626      0.515489
O	      0.02325      4.54546     -2.13289         1.055712      0.087295      1.589318
O	      6.72587      4.47258     -0.05890        -1.036022     -0.646058     -0.781755
O	      0.23699      2.46685     -0.00919        -0.930605      1.579573      1.506566
