# total energy = -101.16127556 eV
 
CRYSTAL
PRIMVEC
-2.147484 4.451577 -2.152381 
2.164872 4.468493 2.166466 
6.466183 0.010344 -2.157181 
PRIMCOORD
16 1
Li	      0.14613      0.22808      0.05347         0.345663      0.010265     -0.764971
Li	      2.33314      2.34565     -0.06308         0.109968      0.343787     -0.129412
Li	      4.43708      4.66060      0.08122        -0.756701     -0.095927      0.113519
Li	      4.45887      2.30943     -2.20171        -0.159825      0.228194      0.215172
Ti	      0.05253      4.65572     -0.04385         2.748302      0.345326     -1.856501
Ti	      4.47343      7.00238     -2.18753        -0.752275     -0.298130      0.841125
Ni	      2.22881      6.99482      0.04520         0.730990     -0.927935     -0.616271
Ni	      2.29719      4.66312     -2.27643        -0.178678      0.317637      1.408911
O	      4.50527      2.47434     -0.07451         2.399497     -0.609813      0.127739
O	      2.16809      4.73205     -0.00424        -1.499078      0.669453     -0.998875
O	      2.33761      2.60033     -2.24433        -0.211901     -0.305547     -2.192587
O	      4.58578      4.83096     -2.27074         0.523588      0.987917      0.792969
O	      0.23114      6.82730     -0.05752        -2.247247     -1.738762      0.568737
O	      0.02347      4.58927     -2.15345         1.159160      0.084370      1.685280
O	      6.79070      4.51569     -0.05946        -1.166574     -0.708577     -0.828747
O	      0.27036      2.49068     -0.01965        -1.044888      1.697742      1.633911
