# total energy = -100.59172882 eV
 
CRYSTAL
PRIMVEC
-2.157759 4.472877 -2.162679 
2.175230 4.489873 2.176831 
6.497122 0.010393 -2.167502 
PRIMCOORD
16 1
Li	      0.15794      0.25175      0.06440         0.386251      0.012662     -0.833510
Li	      2.35552      2.36815     -0.06369         0.121918      0.372187     -0.134450
Li	      4.47964      4.70530      0.08200        -0.826466     -0.113867      0.129737
Li	      4.50164      2.33158     -2.22283        -0.170477      0.248875      0.231927
Ti	      0.05304      4.70039     -0.04427         2.981952      0.373548     -1.990058
Ti	      4.51633      7.06955     -2.20852        -0.764246     -0.282514      0.864062
Ni	      2.25018      7.06191      0.04563         0.794753     -0.978113     -0.637953
Ni	      2.31923      4.70785     -2.29826        -0.191488      0.309702      1.498426
O	      4.53816      2.51947     -0.08557         2.547404     -0.643308      0.119049
O	      2.18889      4.77744     -0.00428        -1.571370      0.719354     -1.080044
O	      2.37044      2.64676     -2.25544        -0.219313     -0.313862     -2.316513
O	      4.62976      4.87730     -2.29253         0.549009      1.028391      0.871520
O	      0.26444      6.89284     -0.06844        -2.436733     -1.845450      0.619994
O	      0.02370      4.63329     -2.17411         1.254202      0.078758      1.767595
O	      6.85584      4.55901     -0.06004        -1.294965     -0.768348     -0.864551
O	      0.30404      2.51463     -0.03021        -1.160430      1.801986      1.754770
