# total energy = -99.37824201 eV
 
CRYSTAL
PRIMVEC
1.984856 3.963739 1.984809 
2.027692 -4.006907 2.027628 
3.993650 0.000025 -3.993541 
PRIMCOORD
16 1
Li	      3.87877     -0.04095      3.78420        -0.041396     -0.153567      0.519437
Li	      3.79189     -1.93343      1.97494         0.150920     -0.667076      0.554667
Li	      5.72966     -0.04160      1.93377         0.518706     -0.148385      0.301283
Li	      5.75609     -1.93389      0.01185         0.717089     -0.338669      0.425757
Ti	      3.76131     -0.01978      0.07009         0.716529      2.042769     -0.220181
Ti	      3.89291     -1.91263     -1.95638        -2.110866     -1.913569     -2.533046
Ni	      5.72286     -0.01994     -1.89149         1.812255      0.964044     -1.681129
Ni	      1.93095     -1.91269      0.00497        -2.751633     -1.730226      0.275912
O	      3.83137     -1.82640     -0.07432         1.054468     -4.518905      2.023018
O	      2.00158     -0.01023      0.02347        -5.190115      1.282128     -0.641322
O	      3.90584      1.78670     -0.00003        -1.292606      4.268742     -0.243720
O	      5.65224     -1.92238     -1.90995         3.943944     -2.234543     -0.416365
O	      3.80775     -0.02971      1.82990         0.469412     -0.154971      5.135982
O	      3.82257     -0.10600     -1.81236        -2.006646      2.089403     -3.233575
O	      5.74149      1.88245     -1.82091         0.695920      2.134053     -1.981282
O	      5.64368      0.06622      0.00889         3.314020     -0.921226      1.714565
