# total energy = -100.41098312 eV
 
CRYSTAL
PRIMVEC
1.995248 3.984492 1.995200 
2.038308 -4.027885 2.038243 
4.014559 0.000025 -4.014449 
PRIMCOORD
16 1
Li	      3.91949     -0.04137      3.82392        -0.033634     -0.138361      0.434818
Li	      3.83170     -1.95373      1.99567         0.133388     -0.564155      0.481844
Li	      5.78982     -0.04204      1.95407         0.441364     -0.129451      0.251873
Li	      5.81652     -1.95420      0.01197         0.614113     -0.281299      0.358290
Ti	      3.80080     -0.01999      0.07083         0.605086      1.765790     -0.178529
Ti	      3.93378     -1.93271     -1.97691        -1.744585     -1.587031     -2.146067
Ni	      5.78294     -0.02015     -1.91135         1.526167      0.844191     -1.408180
Ni	      1.95122     -1.93277      0.00502        -2.362100     -1.453076      0.238359
O	      3.87160     -1.84558     -0.07510         0.890179     -3.831393      1.711271
O	      2.02259     -0.01033      0.02371        -4.389828      1.072001     -0.575034
O	      3.94685      1.80545     -0.00003        -1.130983      3.617843     -0.217952
O	      5.71158     -1.94256     -1.93000         3.321403     -1.908504     -0.339562
O	      3.84772     -0.03002      1.84912         0.442059     -0.160576      4.358487
O	      3.86270     -0.10712     -1.83139        -1.714025      1.728986     -2.735050
O	      5.80177      1.90221     -1.84003         0.608964      1.849119     -1.712450
O	      5.70293      0.06692      0.00898         2.792431     -0.824083      1.477881
