# total energy = -101.28632005 eV
 
CRYSTAL
PRIMVEC
2.005640 4.005245 2.005592 
2.048924 -4.048864 2.048859 
4.035468 0.000025 -4.035358 
PRIMCOORD
16 1
Li	      3.96042     -0.04180      3.86386        -0.029466     -0.118898      0.356340
Li	      3.87171     -1.97414      2.01652         0.117365     -0.477728      0.408575
Li	      5.85028     -0.04248      1.97448         0.368746     -0.111365      0.207273
Li	      5.87727     -1.97461      0.01210         0.517702     -0.236613      0.300533
Ti	      3.84050     -0.02020      0.07157         0.496793      1.502756     -0.137535
Ti	      3.97486     -1.95289     -1.99756        -1.415760     -1.293973     -1.793895
Ni	      5.84333     -0.02036     -1.93131         1.258742      0.727393     -1.159009
Ni	      1.97160     -1.95296      0.00507        -2.000305     -1.200352      0.201126
O	      3.91203     -1.86485     -0.07588         0.746574     -3.193781      1.425070
O	      2.04372     -0.01044      0.02396        -3.647685      0.887056     -0.509307
O	      3.98807      1.82431     -0.00003        -0.968776      3.013926     -0.197994
O	      5.77123     -1.96285     -1.95016         2.749972     -1.610282     -0.267214
O	      3.88791     -0.03033      1.86842         0.410454     -0.160970      3.635818
O	      3.90304     -0.10824     -1.85052        -1.445818      1.407071     -2.275094
O	      5.86236      1.92208     -1.85925         0.525856      1.586292     -1.451189
O	      5.76249      0.06762      0.00907         2.315607     -0.720531      1.256503
