# total energy = -103.07523836 eV
 
CRYSTAL
PRIMVEC
2.036815 4.067502 2.036767 
2.080773 -4.111800 2.080707 
4.098196 0.000025 -4.098084 
PRIMCOORD
16 1
Li	      4.08450     -0.04312      3.98492        -0.007453     -0.068669      0.169823
Li	      3.99301     -2.03599      2.07969         0.062393     -0.242383      0.223156
Li	      6.03357     -0.04381      2.03634         0.179773     -0.057684      0.095562
Li	      6.06140     -2.03648      0.01248         0.263943     -0.111799      0.145907
Ti	      3.96082     -0.02083      0.07381         0.204817      0.789895     -0.020153
Ti	      4.09939     -2.01408     -2.06014        -0.612888     -0.597454     -0.928888
Ni	      6.02640     -0.02099     -1.99182         0.616288      0.398133     -0.552722
Ni	      2.03337     -2.01415      0.00524        -1.037387     -0.577298      0.101674
O	      4.03460     -1.92328     -0.07826         0.397985     -1.551312      0.687353
O	      2.10774     -0.01077      0.02471        -1.745632      0.450737     -0.326532
O	      4.11301      1.88146     -0.00003        -0.508832      1.467064     -0.144791
O	      5.95204     -2.02435     -2.01126         1.282433     -0.850334     -0.078683
O	      4.00971     -0.03128      1.92696         0.292929     -0.147886      1.752960
O	      4.02532     -0.11162     -1.90849        -0.763543      0.616691     -1.104968
O	      6.04602      1.98230     -1.91750         0.261747      0.871079     -0.705774
O	      5.94303      0.06973      0.00935         1.113428     -0.388780      0.686076
