# total energy = -103.66577156 eV
 
CRYSTAL
PRIMVEC
2.057599 4.109007 2.057550 
2.102005 -4.153757 2.101939 
4.140014 0.000025 -4.139901 
PRIMCOORD
16 1
Li	      4.16828     -0.04400      4.06666         0.003160     -0.034842      0.070924
Li	      4.07492     -2.07775      2.12235         0.024799     -0.109758      0.113946
Li	      6.15733     -0.04470      2.07811         0.078434     -0.027255      0.043473
Li	      6.18573     -2.07825      0.01273         0.121104     -0.049591      0.068036
Ti	      4.04206     -0.02126      0.07532         0.034950      0.373598      0.050933
Ti	      4.18348     -2.05539     -2.10240        -0.210737     -0.259338     -0.480714
Ni	      6.15002     -0.02143     -2.03267         0.279312      0.193368     -0.245994
Ni	      2.07508     -2.05546      0.00534        -0.494345     -0.255381      0.052110
O	      4.11735     -1.96273     -0.07986         0.228835     -0.659068      0.286621
O	      2.15098     -0.01099      0.02522        -0.711153      0.244047     -0.208929
O	      4.19738      1.92006     -0.00003        -0.225074      0.624944     -0.118148
O	      6.07413     -2.06587     -2.05251         0.499500     -0.439743      0.020279
O	      4.09196     -0.03193      1.96649         0.204694     -0.126228      0.716455
O	      4.10789     -0.11392     -1.94764        -0.400365      0.217787     -0.484433
O	      6.17004      2.02295     -1.95683         0.086861      0.459653     -0.253949
O	      6.06493      0.07116      0.00955         0.480024     -0.152193      0.369391
