# total energy = -103.80624909 eV
 
CRYSTAL
PRIMVEC
2.067991 4.129760 2.067942 
2.112621 -4.174735 2.112554 
4.160923 0.000026 -4.160809 
PRIMCOORD
16 1
Li	      4.21049     -0.04445      4.10784         0.007631     -0.016627      0.024894
Li	      4.11619     -2.09879      2.14384         0.006002     -0.051535      0.062506
Li	      6.21969     -0.04515      2.09916         0.039248     -0.012142      0.018462
Li	      6.24837     -2.09929      0.01286         0.057345     -0.023144      0.029660
Ti	      4.08300     -0.02147      0.07608        -0.040510      0.182280      0.083623
Ti	      4.22584     -2.07620     -2.12369        -0.041741     -0.121630     -0.289035
Ni	      6.21230     -0.02164     -2.05325         0.138098      0.094254     -0.118574
Ni	      2.09610     -2.07627      0.00539        -0.245783     -0.121586      0.029177
O	      4.15905     -1.98261     -0.08067         0.157132     -0.269246      0.114661
O	      2.17276     -0.01110      0.02547        -0.256821      0.161658     -0.149271
O	      4.23989      1.93950     -0.00003        -0.090986      0.252660     -0.105606
O	      6.13564     -2.08679     -2.07330         0.154396     -0.260742      0.061358
O	      4.13340     -0.03225      1.98640         0.153044     -0.110660      0.258784
O	      4.14949     -0.11507     -1.96737        -0.239589      0.052902     -0.210896
O	      6.23252      2.04345     -1.97665        -0.008389      0.274322     -0.035751
O	      6.12635      0.07189      0.00965         0.210922     -0.030765      0.226009
