# total energy = -103.69520278 eV
 
CRYSTAL
PRIMVEC
2.099167 4.192018 2.099117 
2.144470 -4.237671 2.144402 
4.223651 0.000026 -4.223535 
PRIMCOORD
16 1
Li	      0.09476     -0.00014     -0.01090         0.024805      0.030488     -0.086564
Li	      2.09676      2.07513      0.06457        -0.047231      0.092377     -0.075433
Li	      2.16499     -0.00087     -2.08060        -0.066344      0.022765     -0.036312
Li	      4.29372      2.07461     -2.13115        -0.104722      0.041780     -0.049323
Ti	      4.20703     -0.02213      0.07839        -0.239569     -0.328925      0.169936
Ti	      4.35422     -2.13927     -2.18821         0.356978      0.188349      0.184590
Ni	      2.17737     -0.02233      2.10790        -0.205080     -0.177478      0.171896
Ni	      2.15977     -2.13934      0.00556         0.421269      0.205570     -0.024891
O	      4.28539     -2.04283     -0.08312         0.000498      0.723049     -0.312621
O	      2.23877     -0.01143      0.02625         0.898934     -0.013106      0.008444
O	      4.36869      1.99842     -0.00004         0.285512     -0.704231     -0.081835
O	      2.09838     -2.15021      2.08725        -0.707910      0.195377      0.160074
O	      4.25896     -0.03323      2.04675        -0.010616     -0.052976     -0.922483
O	      4.27554     -0.11856     -2.02713         0.149519     -0.327821      0.479687
O	      2.19820      2.10549      2.18684        -0.288389     -0.238681      0.554094
O	      6.31246      0.07407      0.00994        -0.467654      0.343462     -0.139259
