# total energy = -103.50244332 eV
 
CRYSTAL
PRIMVEC
2.109559 4.212770 2.109509 
2.155086 -4.258650 2.155018 
4.244560 0.000026 -4.244444 
PRIMCOORD
16 1
Li	      0.11682     -0.00037      0.01011         0.025950      0.047571     -0.121332
Li	      2.12824      2.07464      0.07588        -0.065879      0.134719     -0.118471
Li	      2.20759     -0.00111     -2.08014        -0.095482      0.033598     -0.049164
Li	      4.34701      2.07412     -2.14163        -0.155631      0.057931     -0.069370
Ti	      4.24879     -0.02234      0.07917        -0.295380     -0.479051      0.195729
Ti	      4.39743     -2.16051     -2.20992         0.459309      0.262474      0.316374
Ni	      2.21999     -0.02255      2.10781        -0.288564     -0.260883      0.242092
Ni	      2.18121     -2.16058      0.00561         0.620050      0.289227     -0.033911
O	      4.32793     -2.06311     -0.08395        -0.036333      0.994271     -0.429685
O	      2.26099     -0.01155      0.02651         1.222194     -0.051950      0.061901
O	      4.41205      2.01825     -0.00003         0.401857     -0.974642     -0.079552
O	      2.14022     -2.17155      2.08696        -0.947977      0.324723      0.188019
O	      4.30124     -0.03356      2.06706        -0.066804     -0.031821     -1.256275
O	      4.31798     -0.11975     -2.04725         0.256437     -0.421002      0.665704
O	      2.24103      2.12639      2.18754        -0.383565     -0.393894      0.736666
O	      6.37511      0.07480      0.01004        -0.650182      0.468730     -0.248725
