# total energy = -103.24206391 eV
 
CRYSTAL
PRIMVEC
2.119951 4.233523 2.119900 
2.165702 -4.279628 2.165634 
4.265469 0.000026 -4.265352 
PRIMCOORD
16 1
Li	      0.13908     -0.00060      0.03132         0.031090      0.060157     -0.153005
Li	      2.15993      2.07405      0.08730        -0.085951      0.169953     -0.160455
Li	      2.25051     -0.00135     -2.07957        -0.122015      0.042097     -0.061656
Li	      4.40060      2.07352     -2.15212        -0.201562      0.073337     -0.090682
Ti	      4.29075     -0.02257      0.07995        -0.347396     -0.618957      0.218320
Ti	      4.44086     -2.18185     -2.23175         0.548708      0.323825      0.436137
Ni	      2.26293     -0.02277      2.10762        -0.368113     -0.342740      0.303002
Ni	      2.20275     -2.18192      0.00567         0.808590      0.362354     -0.043857
O	      4.37067     -2.08348     -0.08478        -0.065716      1.242394     -0.535371
O	      2.28332     -0.01167      0.02677         1.518337     -0.083246      0.113621
O	      4.45562      2.03819     -0.00003         0.510299     -1.222390     -0.080768
O	      2.18237     -2.19300      2.08656        -1.160292      0.437876      0.209569
O	      4.34371     -0.03389      2.08748        -0.121830     -0.008876     -1.559104
O	      4.36063     -0.12092     -2.06747         0.349391     -0.495969      0.841363
O	      2.28418      2.14740      2.18813        -0.480786     -0.535616      0.911925
O	      6.43807      0.07554      0.01014        -0.812756      0.595801     -0.349038
