# total energy = -102.53865134 eV
 
CRYSTAL
PRIMVEC
2.140735 4.275028 2.140684 
2.186935 -4.321585 2.186865 
4.307287 0.000027 -4.307170 
PRIMCOORD
16 1
Li	      0.18425     -0.00107      0.07436         0.038039      0.090043     -0.218909
Li	      2.22393      2.07255      0.11045        -0.122011      0.236402     -0.244183
Li	      2.33728     -0.00183     -2.07812        -0.166156      0.059338     -0.083836
Li	      4.50876      2.07201     -2.17308        -0.284610      0.098873     -0.122125
Ti	      4.37529     -0.02301      0.08153        -0.435412     -0.870764      0.258589
Ti	      4.52836     -2.22483     -2.27572         0.695896      0.412973      0.647318
Ni	      2.34975     -0.02322      2.10692        -0.490948     -0.502453      0.402979
Ni	      2.24615     -2.22491      0.00578         1.170404      0.475246     -0.049004
O	      4.45679     -2.12454     -0.08645        -0.114516      1.667349     -0.716498
O	      2.32831     -0.01189      0.02730         2.036549     -0.118913      0.218203
O	      4.54342      2.07834     -0.00004         0.711428     -1.659687     -0.084269
O	      2.26760     -2.23621      2.08545        -1.529735      0.641478      0.246421
O	      4.42930     -0.03456      2.12861        -0.243949      0.040300     -2.098033
O	      4.44655     -0.12331     -2.10821         0.515634     -0.613965      1.147217
O	      2.37142      2.18971      2.18902        -0.685558     -0.808457      1.230610
O	      6.56493      0.07703      0.01034        -1.095053      0.852239     -0.534480
