# total energy = -89.42783803 eV
 
CRYSTAL
PRIMVEC
0.022955 2.057761 2.226868 
2.029114 -2.035410 0.000585 
10.455794 12.528101 0.029961 
PRIMCOORD
16 1
Li	      4.31263      2.32012     -2.64283        -0.003789     -0.000689     -0.016467
Li	      4.26052      6.32062     -2.26557        -0.001120     -0.001468      0.008145
Li	      8.30085      6.29586     -6.68555        -0.004670     -0.007491      0.005525
Li	     10.29353     10.31770     -8.66379         0.034199      0.038420     -0.033286
Mn	     12.35520     12.38477     -8.84728        -0.017319     -0.012452      0.032176
Mn	      2.10500      2.10070     -0.07509         0.000224     -0.004692      0.013321
Ni	      6.33419      6.36485     -4.54034        -0.005522     -0.005782     -0.019573
Ni	      8.32357     10.38378     -6.63077        -0.010505     -0.008783      0.015752
O	     10.34052     12.39546     -9.09736        -0.032125     -0.047654      0.010995
O	      8.43692      8.46647     -6.68933        -0.115167     -0.115961      0.044884
O	     10.23259      8.22411     -8.86047         0.118976      0.121875     -0.027079
O	      6.23023      8.29142     -4.52462         0.133938      0.136021     -0.052171
O	      4.23434      4.26606     -2.37005        -0.012233     -0.009987     -0.000217
O	      6.45556      4.45593     -4.62995        -0.124548     -0.128298      0.044185
O	      2.09169      0.05816      0.15140         0.035512      0.039488     -0.006947
O	      1.98914      4.01342      0.06063         0.004149      0.007453     -0.019243
