# total energy = -101.62342460 eV
 
CRYSTAL
PRIMVEC
2.161518 4.316533 2.161467 
2.208167 -4.363542 2.208097 
4.349106 0.000027 -4.348987 
PRIMCOORD
16 1
Li	      0.23027     -0.00154      0.11824         0.044770      0.113230     -0.286498
Li	      2.28876      2.07062      0.13405        -0.155478      0.293434     -0.320487
Li	      2.42531     -0.00233     -2.07624        -0.203714      0.068491     -0.101832
Li	      4.61816      2.07007     -2.19405        -0.356484      0.120772     -0.143021
Ti	      4.46066     -0.02346      0.08312        -0.503703     -1.087737      0.292640
Ti	      4.61672     -2.26825     -2.32013         0.807605      0.461886      0.832016
Ni	      2.43782     -0.02367      2.10581        -0.580881     -0.650240      0.455175
Ni	      2.28998     -2.26832      0.00589         1.493211      0.559305     -0.042833
O	      4.54375     -2.16599     -0.08813        -0.139133      2.010762     -0.858579
O	      2.37374     -0.01213      0.02783         2.461786     -0.130830      0.323748
O	      4.63206      2.11890     -0.00004         0.902585     -2.028005     -0.092024
O	      2.35407     -2.27984      2.08391        -1.825295      0.810077      0.268724
O	      4.51573     -0.03523      2.17014        -0.371058      0.094731     -2.540405
O	      4.53331     -0.12571     -2.14934         0.637910     -0.686821      1.400770
O	      2.45991      2.23243      2.18951        -0.891793     -1.051041      1.517071
O	      6.69302      0.07853      0.01054        -1.320329      1.101986     -0.704467
