# total energy = -100.52910220 eV
 
CRYSTAL
PRIMVEC
2.182302 4.358038 2.182250 
2.229400 -4.405500 2.229329 
4.390924 0.000027 -4.390804 
PRIMCOORD
16 1
Li	      0.27714     -0.00203      0.16294         0.046741      0.135882     -0.367195
Li	      2.35442      2.06827      0.15807        -0.188833      0.338692     -0.396340
Li	      2.51459     -0.00283     -2.07394        -0.236045      0.076673     -0.119196
Li	      4.72884      2.06771     -2.21501        -0.420340      0.136689     -0.162541
Ti	      4.54686     -0.02391      0.08473        -0.553001     -1.270237      0.318153
Ti	      4.70593     -2.31208     -2.36496         0.891385      0.478126      0.995560
Ni	      2.52714     -0.02413      2.10428        -0.637450     -0.790112      0.487411
Ni	      2.33423     -2.31215      0.00601         1.800933      0.611790     -0.024718
O	      4.63155     -2.20784     -0.08984        -0.147758      2.282628     -0.975292
O	      2.41961     -0.01236      0.02837         2.809557     -0.121172      0.427916
O	      4.72157      2.15985     -0.00004         1.068230     -2.336875     -0.110282
O	      2.44178     -2.32390      2.08196        -2.057415      0.943688      0.287223
O	      4.60299     -0.03591      2.21207        -0.498153      0.146717     -2.908776
O	      4.62090     -0.12814     -2.19087         0.729521     -0.723029      1.627826
O	      2.54966      2.27557      2.18960        -1.105784     -1.260346      1.765105
O	      6.82235      0.08005      0.01074        -1.501588      1.350886     -0.844855
