# total energy = -98.03389627 eV
 
CRYSTAL
PRIMVEC
1.979597 3.896371 1.979695 
2.007510 -3.924237 2.007575 
4.020821 -0.000077 -4.021080 
PRIMCOORD
16 1
Li	      0.10041     -0.00083     -0.09947        -0.799401      0.181869      0.107561
Li	      1.85309      1.85030      0.02979        -0.666673      0.860016     -0.293406
Li	      3.74254      3.70077      0.01889         0.205702      0.752248     -0.170039
Li	      3.79462      1.83593      1.87493         0.253338      0.584756      0.976400
Ti	      3.68685     -0.01384      0.10070         2.544470     -2.567564     -3.102244
Ti	      5.75980      1.83712     -0.09185         3.281315      1.850393      2.916038
Ni	      3.80344      1.85010     -1.92323        -1.872784      1.433106     -2.652178
Ni	      1.90365     -0.01389      1.88419        -2.218901     -1.049218      2.303789
O	      3.84023     -1.78724     -0.11082        -0.821854     -4.524259      1.372471
O	      1.99719      0.01712      0.00637        -6.868249     -0.146942     -2.278413
O	      3.89786      1.75938     -0.05283        -2.518038      5.093745      2.104814
O	      5.61910     -1.88088     -1.88886         2.364405     -2.148401     -1.234664
O	      3.78161     -0.04501      1.79059         2.393691     -0.338472      6.949275
O	      3.82658     -0.06877     -1.84085        -0.662194     -0.210433     -3.132392
O	      5.67621      1.85303     -1.83175         2.387230      2.286901     -4.754145
O	      5.62798      0.04104     -0.03930         2.997941     -2.057746      0.887136
