# total energy = -99.26480014 eV
 
CRYSTAL
PRIMVEC
1.990016 3.916879 1.990115 
2.018075 -3.944891 2.018142 
4.041984 -0.000078 -4.042243 
PRIMCOORD
16 1
Li	      0.10147     -0.00084     -0.10052        -0.682346      0.163443      0.096105
Li	      1.87265      1.86982      0.03011        -0.583957      0.736423     -0.261985
Li	      3.78204      3.73982      0.01909         0.191123      0.650687     -0.154577
Li	      3.83467      1.85531      1.89472         0.227772      0.500233      0.847463
Ti	      3.72576     -0.01400      0.10176         2.204122     -2.251377     -2.689270
Ti	      5.82059      1.85650     -0.09282         2.806028      1.545138      2.466162
Ni	      3.84358      1.86963     -1.94352        -1.581705      1.208062     -2.275788
Ni	      1.92374     -0.01403      1.90407        -1.919770     -0.937821      1.988876
O	      3.88076     -1.80610     -0.11199        -0.766561     -3.870693      1.220329
O	      2.01827      0.01730      0.00644        -5.902476     -0.115917     -1.955674
O	      3.93900      1.77795     -0.05339        -2.165261      4.388432      1.833404
O	      5.67840     -1.90074     -1.90879         2.085853     -1.920984     -1.118519
O	      3.82153     -0.04549      1.80949         2.053802     -0.280134      5.952964
O	      3.86697     -0.06950     -1.86028        -0.607913     -0.135913     -2.673027
O	      5.73611      1.87258     -1.85108         2.076802      2.021247     -4.075010
O	      5.68738      0.04147     -0.03971         2.564486     -1.700828      0.798547
