# total energy = -101.22546227 eV
 
CRYSTAL
PRIMVEC
2.010854 3.957893 2.010953 
2.039207 -3.986199 2.039274 
4.084308 -0.000079 -4.084570 
PRIMCOORD
16 1
Li	      0.10361     -0.00086     -0.10264        -0.471507      0.126439      0.062526
Li	      1.91207      1.90919      0.03074        -0.429062      0.523228     -0.196536
Li	      3.86166      3.81856      0.01949         0.154741      0.470426     -0.117649
Li	      3.91540      1.89437      1.93460         0.171775      0.347254      0.613414
Ti	      3.80419     -0.01429      0.10390         1.566980     -1.661430     -1.919421
Ti	      5.94312      1.89559     -0.09478         1.978573      1.031265      1.685377
Ni	      3.92449      1.90899     -1.98444        -1.092423      0.822538     -1.605737
Ni	      1.96425     -0.01433      1.94416        -1.372824     -0.718976      1.420698
O	      3.96245     -1.84412     -0.11434        -0.637698     -2.715036      0.931393
O	      2.06076      0.01766      0.00657        -4.168317     -0.072550     -1.396744
O	      4.02193      1.81538     -0.05452        -1.534059      3.111793      1.344243
O	      5.79794     -1.94075     -1.94897         1.545945     -1.472998     -0.889966
O	      3.90198     -0.04645      1.84758         1.469798     -0.178423      4.168399
O	      3.94838     -0.07096     -1.89944        -0.501834     -0.044816     -1.868108
O	      5.85687      1.91200     -1.89005         1.518923      1.523903     -2.864716
O	      5.80711      0.04235     -0.04055         1.800989     -1.092618      0.632827
