# total energy = -102.58936881 eV
 
CRYSTAL
PRIMVEC
2.031691 3.998908 2.031792 
2.060339 -4.027507 2.060406 
4.126633 -0.000080 -4.126898 
PRIMCOORD
16 1
Li	      0.10577     -0.00088     -0.10478        -0.293644      0.090392      0.031447
Li	      1.95190      1.94896      0.03138        -0.291614      0.341228     -0.133198
Li	      3.94211      3.89811      0.01989         0.110380      0.311889     -0.081588
Li	      3.99697      1.93383      1.97490         0.119561      0.224562      0.412863
Ti	      3.88345     -0.01459      0.10607         0.988159     -1.124896     -1.221220
Ti	      6.06693      1.93508     -0.09675         1.301727      0.632047      1.041550
Ni	      4.00625      1.94876     -2.02578        -0.689917      0.512184     -1.043746
Ni	      2.00516     -0.01462      1.98466        -0.902320     -0.505550      0.928242
O	      4.04500     -1.88254     -0.11673        -0.498623     -1.734371      0.638089
O	      2.10369      0.01804      0.00671        -2.657175     -0.038866     -0.928738
O	      4.10571      1.85320     -0.05565        -0.989043      2.008954      0.923724
O	      5.91873     -1.98118     -1.98957         1.026478     -1.052215     -0.660798
O	      3.98326     -0.04741      1.88607         0.977510     -0.100619      2.637939
O	      4.03063     -0.07244     -1.93901        -0.394467     -0.013379     -1.198794
O	      5.97888      1.95184     -1.92943         1.037254      1.061827     -1.821697
O	      5.92809      0.04323     -0.04140         1.155733     -0.613187      0.475925
