# total energy = -103.07239842 eV
 
CRYSTAL
PRIMVEC
2.042110 4.019415 2.042212 
2.070905 -4.048161 2.070973 
4.147795 -0.000080 -4.148061 
PRIMCOORD
16 1
Li	      0.10685     -0.00088     -0.10586        -0.217018      0.072343      0.018949
Li	      1.97197      1.96900      0.03170        -0.230853      0.259495     -0.102817
Li	      3.98265      3.93819      0.02010         0.088828      0.241739     -0.065686
Li	      4.03807      1.95371      1.99521         0.092642      0.169215      0.320708
Ti	      3.92338     -0.01473      0.10716         0.717850     -0.875926     -0.897592
Ti	      6.12932      1.95497     -0.09774         1.010915      0.467873      0.763861
Ni	      4.04745      1.96880     -2.04661        -0.515064      0.385247     -0.798127
Ni	      2.02578     -0.01478      2.00507        -0.686564     -0.399833      0.706582
O	      4.08660     -1.90190     -0.11793        -0.425256     -1.302006      0.500392
O	      2.12532      0.01822      0.00678        -1.981024     -0.026475     -0.724296
O	      4.14793      1.87226     -0.05622        -0.752352      1.515844      0.737040
O	      5.97959     -2.00155     -2.01003         0.775803     -0.847766     -0.548882
O	      4.02422     -0.04790      1.90547         0.765418     -0.070950      1.956321
O	      4.07208     -0.07318     -1.95895        -0.337788     -0.020830     -0.905111
O	      6.04036      1.97191     -1.94926         0.823134      0.845997     -1.359456
O	      5.98905      0.04367     -0.04182         0.871328     -0.413967      0.398114
