# total energy = -90.63655468 eV
 
CRYSTAL
PRIMVEC
0.000001 2.084254 2.082941 
4.036720 0.000048 -0.000048 
-0.000171 8.743886 -8.738003 
PRIMCOORD
16 1
Li	      4.03570      2.53242     -2.52695        -0.000136      0.015395     -0.016645
Li	      2.01732      4.51804     -2.42840        -0.000207      0.031069     -0.026863
Li	      2.01742      6.49724     -4.40594        -0.000526     -0.024769      0.027363
Li	      2.01733      8.39649     -6.30666         0.000271      0.001159     -0.006695
Mn	      4.03560      8.61440     -8.60576         0.000105      0.018152     -0.029149
Mn	      2.01737      2.20944     -0.11760         0.000085     -0.004155      0.012643
Ni	      4.03570      4.38592     -4.37937         0.000274      0.070187     -0.069111
Ni	      4.03573      6.41696     -6.40801        -0.000084      0.100199     -0.101506
O	      2.01735      6.55122     -6.54425        -0.000751     -0.017649      0.012833
O	      4.03561      8.72956     -6.64548         0.000988      0.006832     -0.034788
O	      2.01733      4.39303     -4.38633        -0.000416      0.003278     -0.001658
O	      4.03571      6.49043     -4.39611         0.000190     -0.075083      0.078154
O	      2.01733      2.04297     -2.03590         0.000640     -0.015465      0.024843
O	      4.03568      4.46390     -2.37536         0.000573     -0.098605      0.099327
O	      2.01741      0.17662     -0.16767        -0.000904      0.018836     -0.005850
O	      4.03574      1.90973      0.18797        -0.000101     -0.029381      0.037103
