# total energy = -103.43448253 eV
 
CRYSTAL
PRIMVEC
2.052529 4.039922 2.052631 
2.081470 -4.068814 2.081539 
4.168957 -0.000080 -4.169225 
PRIMCOORD
16 1
Li	      0.10794     -0.00089     -0.10694        -0.145564      0.053789      0.004558
Li	      1.99215      1.98915      0.03202        -0.171672      0.187519     -0.073852
Li	      4.02339      3.97848      0.02030         0.068127      0.175214     -0.048194
Li	      4.07938      1.97371      2.01562         0.067798      0.121287      0.235390
Ti	      3.96351     -0.01489      0.10826         0.461275     -0.639730     -0.589344
Ti	      6.19202      1.97497     -0.09874         0.749747      0.324097      0.512521
Ni	      4.08885      1.98894     -2.06755        -0.361895      0.268649     -0.573963
Ni	      2.04651     -0.01493      2.02558        -0.485612     -0.295959      0.497978
O	      4.12840     -1.92136     -0.11913        -0.347303     -0.905446      0.360800
O	      2.14706      0.01840      0.00685        -1.355237     -0.018260     -0.540803
O	      4.19036      1.89141     -0.05680        -0.529275      1.062127      0.563245
O	      6.04076     -2.02203     -2.03060         0.524278     -0.650829     -0.433649
O	      4.06539     -0.04839      1.92496         0.572678     -0.043384      1.328705
O	      4.11373     -0.07393     -1.97899        -0.279901     -0.039490     -0.636636
O	      6.10216      1.99208     -1.96920         0.617058      0.639486     -0.926121
O	      6.05031      0.04412     -0.04225         0.615498     -0.239071      0.319364
