# total energy = -103.68323154 eV
 
CRYSTAL
PRIMVEC
2.062948 4.060429 2.063051 
2.092036 -4.089468 2.092105 
4.190119 -0.000081 -4.190388 
PRIMCOORD
16 1
Li	      0.10904     -0.00090     -0.10803        -0.080501      0.036941     -0.010273
Li	      2.01242      2.00939      0.03235        -0.115989      0.119682     -0.045879
Li	      4.06434      4.01897      0.02051         0.041768      0.115453     -0.032328
Li	      4.12090      1.99379      2.03614         0.044005      0.078624      0.154668
Ti	      4.00386     -0.01504      0.10936         0.218437     -0.415517     -0.298851
Ti	      6.25505      1.99507     -0.09975         0.513790      0.198732      0.285218
Ni	      4.13047      2.00918     -2.08859        -0.223026      0.167549     -0.370459
Ni	      2.06734     -0.01508      2.04619        -0.298719     -0.198350      0.305344
O	      4.17042     -1.94091     -0.12035        -0.272913     -0.539807      0.226414
O	      2.16891      0.01859      0.00692        -0.772622     -0.014777     -0.374759
O	      4.23301      1.91066     -0.05738        -0.320580      0.638844      0.400971
O	      6.10225     -2.04260     -2.05126         0.286167     -0.457991     -0.318431
O	      4.10677     -0.04888      1.94456         0.393646     -0.023211      0.751526
O	      4.15561     -0.07468     -1.99914        -0.220329     -0.065780     -0.394147
O	      6.16426      2.01236     -1.98925         0.427741      0.446317     -0.525179
O	      6.11189      0.04457     -0.04268         0.379125     -0.086708      0.246164
