# total energy = -103.82733905 eV
 
CRYSTAL
PRIMVEC
2.073367 4.080936 2.073470 
2.102602 -4.110122 2.102671 
4.211281 -0.000081 -4.211552 
PRIMCOORD
16 1
Li	      0.11015     -0.00091     -0.10912        -0.021837      0.018745     -0.022009
Li	      2.03280      2.02974      0.03268        -0.063370      0.056681     -0.017409
Li	      4.10550      4.05967      0.02072         0.019849      0.056483     -0.015244
Li	      4.16263      2.01398      2.05676         0.016963      0.040441      0.078350
Ti	      4.04440     -0.01519      0.11047        -0.010607     -0.204169     -0.024998
Ti	      6.31839      2.01528     -0.10076         0.302627      0.089936      0.078798
Ni	      4.17230      2.02953     -2.10974        -0.101644      0.077485     -0.180990
Ni	      2.08827     -0.01523      2.06692        -0.122427     -0.099515      0.126522
O	      4.21265     -1.96057     -0.12157        -0.192319     -0.201788      0.093777
O	      2.19088      0.01878      0.00699        -0.231866     -0.010292     -0.225527
O	      4.27588      1.93001     -0.05796        -0.135890      0.250349      0.250969
O	      6.16404     -2.06329     -2.07203         0.048026     -0.269660     -0.202378
O	      4.14836     -0.04937      1.96424         0.235115     -0.005598      0.218975
O	      4.19769     -0.07544     -2.01938        -0.160926     -0.105897     -0.171027
O	      6.22669      2.03274     -2.00939         0.255671      0.261265     -0.158822
O	      6.17378      0.04502     -0.04311         0.162635      0.045535      0.171015
