# total energy = -103.70059222 eV
 
CRYSTAL
PRIMVEC
2.104624 4.142458 2.104728 
2.134300 -4.172084 2.134370 
4.274768 -0.000082 -4.275043 
PRIMCOORD
16 1
Li	      0.11349     -0.00094     -0.11244         0.128108     -0.032112     -0.055827
Li	      2.09455      2.09140      0.03367         0.081470     -0.096025      0.063785
Li	      2.12559      0.04054     -2.08338        -0.053279     -0.103955      0.037893
Li	      2.18446     -2.06729      0.01451        -0.054172     -0.060315     -0.122225
Ti	      4.16726     -0.01565      0.11382        -0.627232      0.362836      0.706655
Ti	      4.40571     -2.06596     -2.20855        -0.214827     -0.154245     -0.425587
Ni	      4.29905      2.09118     -2.17384         0.186383     -0.128052      0.288971
Ni	      2.15171     -0.01569      2.12970         0.337908      0.185348     -0.333641
O	      4.34063     -2.02012     -0.12526         0.052219      0.665580     -0.293325
O	      2.25743      0.01935      0.00720         1.147656     -0.011204      0.141013
O	      4.40577      1.98864     -0.05972         0.345945     -0.741913     -0.131918
O	      6.35130     -2.12597     -2.13498        -0.619970      0.260174      0.134621
O	      4.27438     -0.05088      2.02391        -0.161707      0.030154     -1.126908
O	      4.32520     -0.07773     -2.08072         0.029572     -0.272167      0.386258
O	      6.41584      2.09449     -2.07043        -0.203717     -0.227605      0.773909
O	      6.36134      0.04639     -0.04442        -0.374358      0.323500     -0.043674
