# total energy = -103.49405957 eV
 
CRYSTAL
PRIMVEC
2.115043 4.162965 2.115148 
2.144866 -4.192738 2.144936 
4.295930 -0.000083 -4.296206 
PRIMCOORD
16 1
Li	      0.11462     -0.00095     -0.11355         0.170990     -0.048130     -0.066735
Li	      2.11534      2.11216      0.03400         0.121963     -0.139975      0.088408
Li	      2.15716      0.06155     -2.09359        -0.077330     -0.154715      0.053563
Li	      2.21661     -2.06720      0.02513        -0.078746     -0.084918     -0.182192
Ti	      4.20862     -0.01581      0.11495        -0.809098      0.528557      0.920414
Ti	      4.45990     -2.06586     -2.22000        -0.355547     -0.215154     -0.564123
Ni	      4.34171      2.11194     -2.19541         0.263639     -0.177697      0.415175
Ni	      2.17306     -0.01585      2.15085         0.473278      0.277941     -0.461439
O	      4.38371     -2.04018     -0.12650         0.136664      0.915998     -0.413451
O	      2.27984      0.01954      0.00728         1.538085     -0.015468      0.239096
O	      4.44950      2.00838     -0.06031         0.478249     -1.018918     -0.239058
O	      6.41433     -2.14707     -2.15617        -0.828491      0.425555      0.245353
O	      4.31680     -0.05138      2.04400        -0.267803      0.032067     -1.499820
O	      4.36813     -0.07850     -2.10137         0.090923     -0.342149      0.541981
O	      6.47952      2.11528     -2.09098        -0.334731     -0.368249      1.034177
O	      6.42447      0.04685     -0.04486        -0.522045      0.385257     -0.111350
