# total energy = -103.21482077 eV
 
CRYSTAL
PRIMVEC
2.125462 4.183472 2.125567 
2.155431 -4.213392 2.155502 
4.317092 -0.000083 -4.317370 
PRIMCOORD
16 1
Li	      0.11575     -0.00096     -0.11468         0.213199     -0.063349     -0.077415
Li	      2.13624      2.13302      0.03434         0.163485     -0.178318      0.112932
Li	      2.18893      0.08277     -2.10379        -0.101574     -0.205128      0.071386
Li	      2.24897     -2.06702      0.03584        -0.103626     -0.107811     -0.239569
Ti	      4.25019     -0.01596      0.11609        -0.978743      0.683845      1.120863
Ti	      4.51442     -2.06565     -2.23145        -0.482509     -0.266362     -0.688846
Ni	      4.38459      2.13279     -2.21709         0.328208     -0.225273      0.533511
Ni	      2.19453     -0.01601      2.17209         0.598310      0.367226     -0.583208
O	      4.42700     -2.06033     -0.12775         0.219622      1.149196     -0.530453
O	      2.30236      0.01974      0.00735         1.898593     -0.018433      0.326631
O	      4.49345      2.02822     -0.06091         0.600810     -1.272975     -0.337490
O	      2.16059     -2.16820      2.13991        -1.032005      0.584322      0.357308
O	      4.35944     -0.05189      2.06419        -0.361703      0.036245     -1.843544
O	      4.41128     -0.07928     -2.12213         0.157548     -0.417494      0.682662
O	      2.22642      2.13625      2.20573        -0.456289     -0.498174      1.276788
O	      6.48792      0.04731     -0.04530        -0.663326      0.432480     -0.181556
