# total energy = -102.86813905 eV
 
CRYSTAL
PRIMVEC
2.135881 4.203980 2.135987 
2.165997 -4.234045 2.166068 
4.338255 -0.000084 -4.338533 
PRIMCOORD
16 1
Li	      0.11689     -0.00097     -0.11581         0.250517     -0.077294     -0.085421
Li	      2.15723      2.15398      0.03468         0.202668     -0.213079      0.136892
Li	      2.22091      0.10418     -2.11400        -0.126448     -0.256460      0.087144
Li	      2.28154     -2.06672      0.04667        -0.125225     -0.127339     -0.292363
Ti	      4.29196     -0.01612      0.11723        -1.138704      0.828699      1.308524
Ti	      4.56926     -2.06535     -2.24291        -0.598359     -0.309591     -0.801287
Ni	      4.42768      2.15375     -2.23888         0.386808     -0.264964      0.636200
Ni	      2.21609     -0.01617      2.19343         0.714106      0.449185     -0.693441
O	      4.47051     -2.08057     -0.12901         0.300752      1.362003     -0.644503
O	      2.32498      0.01993      0.00742         2.228024     -0.022861      0.405582
O	      4.53761      2.04815     -0.06151         0.710493     -1.501278     -0.428891
O	      2.20309     -2.18950      2.13967        -1.228991      0.738591      0.466138
O	      4.40228     -0.05239      2.08448        -0.447626      0.037565     -2.152814
O	      4.45463     -0.08006     -2.14299         0.225784     -0.494459      0.811009
O	      2.26957      2.15724      2.20615        -0.568558     -0.613165      1.495959
O	      6.55169      0.04778     -0.04575        -0.785240      0.464447     -0.248728
