# total energy = -101.99319356 eV
 
CRYSTAL
PRIMVEC
2.156719 4.244994 2.156826 
2.187129 -4.275353 2.187201 
4.380579 -0.000084 -4.380861 
PRIMCOORD
16 1
Li	      0.11918     -0.00099     -0.11807         0.325850     -0.104933     -0.103449
Li	      2.19953      2.19622      0.03536         0.276726     -0.271488      0.181643
Li	      2.28551      0.14765     -2.13441        -0.176517     -0.362243      0.121217
Li	      2.34732     -2.06583      0.06862        -0.169368     -0.160901     -0.390450
Ti	      4.37612     -0.01644      0.11952        -1.424939      1.087539      1.641473
Ti	      4.67989     -2.06443     -2.26585        -0.803398     -0.378520     -0.998708
Ni	      4.51450      2.19598     -2.28278         0.472349     -0.327165      0.823177
Ni	      2.25955     -0.01648      2.23644         0.934015      0.613501     -0.886614
O	      4.55817     -2.12137     -0.13153         0.466524      1.757485     -0.858298
O	      2.37057      0.02032      0.00757         2.800494     -0.036176      0.540949
O	      4.62658      2.08831     -0.06271         0.898518     -1.897968     -0.588870
O	      2.28903     -2.23243      2.13888        -1.590836      1.034441      0.679165
O	      4.48860     -0.05342      2.12535        -0.598172      0.036909     -2.683448
O	      4.54197     -0.08163     -2.18500         0.363729     -0.665173      1.035869
O	      2.35681      2.19954      2.20666        -0.771153     -0.824740      1.870038
O	      6.68015      0.04871     -0.04665        -1.003824      0.499433     -0.383695
