# total energy = -91.48744998 eV
 
CRYSTAL
PRIMVEC
-0.000033 2.068350 2.079851 
6.157538 0.022809 -2.103144 
-2.036705 6.269227 -4.223162 
PRIMCOORD
16 1
Li	      4.11375      2.21550     -2.22159         0.023327     -0.002576     -0.006140
Li	     -0.13156      4.27684     -0.14189        -0.035588     -0.000206      0.003898
Li	      4.06404      4.08782     -4.07931         0.020692     -0.003542     -0.019459
Li	      2.16409      6.21129     -4.18137         0.019740     -0.001248      0.007181
Mn	      6.03629      2.09659     -0.04431        -0.047189      0.006271      0.000424
Mn	      2.15629      2.11260     -0.04871        -0.023429      0.009034      0.004040
Ni	      2.09310      4.21129     -2.15792        -0.027924     -0.111303      0.103357
Ni	      0.04467      6.21424     -2.08720        -0.073156      0.058613     -0.067068
O	      0.14879      4.20986     -2.15623        -0.135986     -0.126213      0.116008
O	     -0.02992      1.96068      0.10301        -0.041865     -0.009491      0.012507
O	      4.17791      6.41587     -4.39838        -0.110462      0.026665     -0.015141
O	      3.96163      4.20475     -2.13056         0.226362     -0.021256     -0.003806
O	     -0.03850      6.35661     -4.33472        -0.019325      0.037992     -0.018424
O	      4.16891      2.02814      0.02800         0.088205      0.004725     -0.000683
O	      2.04556      6.16562     -2.05113         0.130384      0.148604     -0.137507
O	      2.04735      2.02398     -2.01526         0.006215     -0.016070      0.020813
