# total energy = -100.29022111 eV
 
CRYSTAL
PRIMVEC
2.187975 4.306516 2.188084 
2.218826 -4.337315 2.218899 
4.444066 -0.000086 -4.444351 
PRIMCOORD
16 1
Li	      0.12266     -0.00101     -0.12152         0.443636     -0.140529     -0.126282
Li	      2.26375      2.26034      0.03639         0.381530     -0.333943      0.244444
Li	      2.38394      0.21436     -2.16501        -0.246250     -0.546108      0.174586
Li	      2.44756     -2.06373      0.10234        -0.232777     -0.192164     -0.524941
Ti	      4.50388     -0.01692      0.12302        -1.782425      1.402468      2.050227
Ti	      4.84823     -2.06229     -2.30029        -1.060524     -0.446709     -1.237027
Ni	      4.64630      2.26010     -2.34943         0.560652     -0.396225      1.031755
Ni	      2.32551     -0.01696      2.30174         1.203586      0.845006     -1.115713
O	      4.69124     -2.18330     -0.13537         0.698741      2.293282     -1.154048
O	      2.43978      0.02091      0.00779         3.473758     -0.061550      0.688402
O	      4.76166      2.14927     -0.06454         1.115710     -2.356726     -0.769012
O	      2.42026     -2.29761      2.13691        -2.079637      1.430496      0.989043
O	      4.61964     -0.05498      2.18740        -0.760766      0.018068     -3.299420
O	      4.67458     -0.08401     -2.24880         0.575883     -0.933071      1.311091
O	      2.49002      2.26376      2.20668        -1.014531     -1.064509      2.309584
O	      6.87518      0.05013     -0.04801        -1.276587      0.482215     -0.572689
