# total energy = -100.36171534 eV
 
CRYSTAL
PRIMVEC
1.964482 4.064962 1.964451 
1.999119 -4.100330 1.999062 
3.970406 0.000019 -3.970289 
PRIMCOORD
16 1
Li	      3.77505     -0.00020     -3.77319        -0.289038     -0.069932     -0.771195
Li	      1.89001      1.94924     -0.00256        -0.335357      0.465702      0.004252
Li	      1.92028      0.00024     -1.91818        -0.858401     -0.026240     -0.688839
Li	      3.81069     -1.96731     -1.88924         0.180418     -0.503848     -0.662358
Ti	      1.83906     -1.96747      0.08234        -1.132429     -2.837523     -1.197508
Ti	      3.86569     -0.01665     -0.05857         1.505753      0.519163      2.212317
Ni	      3.81317      1.95131     -1.92520         0.514616      2.328286     -1.195781
Ni	      1.90843     -0.01668      1.89878        -0.858545      0.240361      2.206668
O	      3.75840     -1.84645      0.01330         1.050576     -3.782496     -0.143010
O	      1.97835     -0.14146     -0.00817        -3.121804      2.004515     -1.760907
O	      3.79386      1.81337      0.04859         0.331311      3.635809     -0.455402
O	      1.91248     -1.96070      1.84958        -0.415994     -1.766183      3.128492
O	      3.81544      0.10879      1.82872         1.576691     -0.425788      2.690273
O	      3.81970      0.07135     -1.83549        -0.473462     -1.355904     -4.566116
O	      1.95749      1.92749      1.89472        -1.783564      1.639196      0.731695
O	      5.64299     -0.10480     -0.01239         4.109230     -0.065120      0.467420
