# total energy = -101.25013417 eV
 
CRYSTAL
PRIMVEC
1.974713 4.086134 1.974683 
2.009531 -4.121686 2.009473 
3.991085 0.000019 -3.990968 
PRIMCOORD
16 1
Li	      3.81447     -0.00020     -3.81260        -0.258626     -0.058466     -0.646481
Li	      1.90975      1.96960     -0.00259        -0.272258      0.397708      0.018780
Li	      1.94034      0.00024     -1.93822        -0.726603     -0.025046     -0.583581
Li	      3.85049     -1.98786     -1.90897         0.153826     -0.426852     -0.560613
Ti	      1.85827     -1.98802      0.08320        -0.918177     -2.388155     -0.940802
Ti	      3.90607     -0.01682     -0.05918         1.314861      0.443183      1.882136
Ni	      3.85299      1.97169     -1.94531         0.440698      1.948480     -0.997773
Ni	      1.92835     -0.01685      1.91861        -0.681635      0.205397      1.852736
O	      3.79765     -1.86573      0.01344         0.836475     -3.152205     -0.131142
O	      1.99902     -0.14294     -0.00825        -2.609486      1.650895     -1.492424
O	      3.83347      1.83231      0.04910         0.286900      3.031693     -0.418051
O	      1.93246     -1.98117      1.86889        -0.356178     -1.492155      2.573167
O	      3.85528      0.10992      1.84782         1.329842     -0.359791      2.223514
O	      3.85960      0.07210     -1.85466        -0.436003     -1.145400     -3.820061
O	      1.97793      1.94762      1.91451        -1.506618      1.402276      0.623228
O	      5.70192     -0.10589     -0.01252         3.402982     -0.031564      0.417367
