# total energy = -101.99055444 eV
 
CRYSTAL
PRIMVEC
1.984945 4.107306 1.984914 
2.019944 -4.143041 2.019885 
4.011764 0.000019 -4.011647 
PRIMCOORD
16 1
Li	      3.85411     -0.00020     -3.85221        -0.219705     -0.048506     -0.538800
Li	      1.92959      1.99006     -0.00262        -0.218565      0.332198      0.027632
Li	      1.96049      0.00024     -1.95835        -0.602327     -0.023064     -0.481315
Li	      3.89049     -2.00851     -1.92881         0.127830     -0.354090     -0.464328
Ti	      1.87758     -2.00868      0.08406        -0.732366     -1.970224     -0.716336
Ti	      3.94665     -0.01699     -0.05980         1.128242      0.370665      1.565268
Ni	      3.89302      1.99218     -1.96552         0.371659      1.599426     -0.816635
Ni	      1.94839     -0.01703      1.93855        -0.526248      0.169683      1.526130
O	      3.83711     -1.88511      0.01358         0.646358     -2.562839     -0.123033
O	      2.01979     -0.14442     -0.00834        -2.136413      1.327816     -1.242383
O	      3.87331      1.85134      0.04961         0.237887      2.470710     -0.365146
O	      1.95254     -2.00176      1.88831        -0.299793     -1.237263      2.062242
O	      3.89534      0.11107      1.86702         1.103509     -0.294769      1.799879
O	      3.89970      0.07285     -1.87393        -0.398947     -0.954848     -3.122620
O	      1.99848      1.96786      1.93440        -1.229851      1.178524      0.521630
O	      5.76116     -0.10699     -0.01265         2.748732     -0.003420      0.367815
