# total energy = -103.06667294 eV
 
CRYSTAL
PRIMVEC
2.005409 4.149649 2.005377 
2.040768 -4.185753 2.040709 
4.053122 0.000019 -4.053004 
PRIMCOORD
16 1
Li	      3.93398     -0.00021     -3.93205        -0.150713     -0.029408     -0.336081
Li	      1.96958      2.03130     -0.00267        -0.127696      0.212109      0.031160
Li	      2.00112      0.00025     -1.99894        -0.376128     -0.017145     -0.296254
Li	      3.97112     -2.05014     -1.96878         0.081248     -0.223590     -0.296132
Ti	      1.91649     -2.05030      0.08581        -0.442987     -1.221206     -0.354243
Ti	      4.02844     -0.01735     -0.06103         0.768573      0.235349      0.965139
Ni	      3.97370      2.03346     -2.00626         0.241539      0.983859     -0.496572
Ni	      1.98877     -0.01738      1.97872        -0.279658      0.109952      0.942807
O	      3.91664     -1.92419      0.01386         0.325887     -1.531059     -0.086739
O	      2.06165     -0.14742     -0.00851        -1.285985      0.761475     -0.806900
O	      3.95358      1.88971      0.05064         0.147625      1.472691     -0.238977
O	      1.99300     -2.04324      1.92744        -0.198322     -0.785673      1.165266
O	      3.97607      0.11337      1.90571         0.712181     -0.164222      1.056284
O	      3.98051      0.07436     -1.91277        -0.313184     -0.619592     -1.865268
O	      2.03990      2.00864      1.97449        -0.706320      0.768836      0.336663
O	      5.88056     -0.10921     -0.01291         1.603939      0.047623      0.279846
