# total energy = -103.42125113 eV
 
CRYSTAL
PRIMVEC
2.015640 4.170821 2.015609 
2.051180 -4.207109 2.051120 
4.073802 0.000019 -4.073682 
PRIMCOORD
16 1
Li	      3.97422     -0.00021     -3.97227        -0.118204     -0.020513     -0.240410
Li	      1.98973      2.05209     -0.00270        -0.090889      0.155403      0.028478
Li	      2.02159      0.00025     -2.01939        -0.273205     -0.013554     -0.216590
Li	      4.01175     -2.07111     -1.98892         0.061345     -0.163657     -0.218117
Ti	      1.93609     -2.07128      0.08668        -0.330475     -0.884508     -0.209852
Ti	      4.06966     -0.01753     -0.06166         0.596073      0.172879      0.682818
Ni	      4.01436      2.05427     -2.02678         0.175012      0.707406     -0.356382
Ni	      2.00911     -0.01756      1.99897        -0.187736      0.079961      0.679066
O	      3.95670     -1.94387      0.01400         0.197830     -1.069653     -0.064933
O	      2.08274     -0.14892     -0.00860        -0.909778      0.515008     -0.610901
O	      3.99402      1.90904      0.05116         0.106896      1.031163     -0.161195
O	      2.01339     -2.06414      1.94716        -0.144858     -0.585426      0.771370
O	      4.01674      0.11453      1.92521         0.539730     -0.100779      0.736585
O	      4.02124      0.07512     -1.93234        -0.263821     -0.475715     -1.302856
O	      2.06077      2.02919      1.99469        -0.458319      0.581172      0.247407
O	      5.94072     -0.11033     -0.01305         1.100398      0.070812      0.235511
