# total energy = -103.66442030 eV
 
CRYSTAL
PRIMVEC
2.025872 4.191992 2.025840 
2.061592 -4.228465 2.061532 
4.094481 0.000019 -4.094361 
PRIMCOORD
16 1
Li	      4.01467     -0.00021     -4.01270        -0.082452     -0.012543     -0.153164
Li	      2.00998      2.07297     -0.00273        -0.057023      0.101637      0.023576
Li	      2.04217      0.00025     -2.03994        -0.176823     -0.009008     -0.139350
Li	      4.05258     -2.09219     -2.00917         0.036327     -0.105425     -0.142315
Ti	      1.95580     -2.09236      0.08756        -0.238696     -0.571830     -0.087979
Ti	      4.11108     -0.01770     -0.06229         0.426639      0.112758      0.413737
Ni	      4.05522      2.07518     -2.04741         0.119552      0.453167     -0.235056
Ni	      2.02956     -0.01774      2.01931        -0.108646      0.048794      0.440448
O	      3.99697     -1.96365      0.01415         0.080556     -0.648755     -0.043716
O	      2.10394     -0.15044     -0.00869        -0.562834      0.291511     -0.428069
O	      4.03468      1.92847      0.05167         0.067878      0.624628     -0.076585
O	      2.03388     -2.08515      1.96698        -0.096810     -0.402475      0.405662
O	      4.05763      0.11569      1.94480         0.381713     -0.032987      0.448551
O	      4.06217      0.07588     -1.95201        -0.211031     -0.344943     -0.779959
O	      2.08174      2.04984      2.01499        -0.218395      0.405130      0.164080
O	      6.00119     -0.11145     -0.01318         0.640043      0.090342      0.190140
