# total energy = -103.80578216 eV
 
CRYSTAL
PRIMVEC
2.036104 4.213164 2.036072 
2.072004 -4.249821 2.071944 
4.115160 0.000020 -4.115040 
PRIMCOORD
16 1
Li	      4.05533     -0.00021     -4.05334        -0.050161     -0.005859     -0.065788
Li	      2.03033      2.09396     -0.00276        -0.027213      0.050026      0.014835
Li	      2.06285      0.00025     -2.06060        -0.085115     -0.005157     -0.069397
Li	      4.09361     -2.11338     -2.02951         0.021175     -0.052328     -0.073748
Ti	      1.97561     -2.11355      0.08845        -0.163063     -0.280421      0.012780
Ti	      4.15271     -0.01789     -0.06292         0.262019      0.056424      0.156819
Ni	      4.09628      2.09619     -2.06814         0.068075      0.222290     -0.120486
Ni	      2.05012     -0.01792      2.03976        -0.047987      0.023957      0.220409
O	      4.03745     -1.98354      0.01429        -0.022165     -0.262889     -0.020755
O	      2.12524     -0.15196     -0.00877        -0.243675      0.086463     -0.262701
O	      4.07553      1.94800      0.05220         0.029575      0.251113      0.012916
O	      2.05448     -2.10627      1.98690        -0.050573     -0.230695      0.071605
O	      4.09872      0.11687      1.96450         0.236947      0.033162      0.187846
O	      4.10330      0.07665     -1.97177        -0.159398     -0.225967     -0.292210
O	      2.10282      2.07060      2.03539         0.013395      0.235638      0.082384
O	      6.06195     -0.11258     -0.01331         0.218166      0.104243      0.145489
