# total energy = -91.08281528 eV
 
CRYSTAL
PRIMVEC
0.006488 2.115589 2.078024 
6.173551 6.482934 -4.272440 
-4.075482 2.137432 -2.111898 
PRIMCOORD
16 1
Li	      0.07941      6.50302     -2.20560        -0.010010      0.021080     -0.012254
Li	      1.92423      6.23155     -4.10196        -0.023192     -0.007638     -0.010097
Li	      0.09992      4.49374     -0.16679         0.005435      0.016633      0.014026
Li	      4.03947      6.32309     -2.08501         0.015473     -0.012458     -0.008753
Mn	      6.15796      8.56311     -2.19553        -0.081378     -0.025027      0.012883
Mn	     -1.90173      4.38314     -2.15684        -0.000686     -0.015821      0.002382
Ni	     -2.00858      2.09999     -0.02972        -0.009743      0.028383     -0.050187
Ni	      2.08182      4.37199     -2.21230        -0.063420     -0.081233      0.107945
O	      4.28642      6.57497     -4.37208         0.129262     -0.119211      0.120795
O	     -0.04421      6.45616     -4.25781         0.101043     -0.018368      0.001930
O	      2.12122      8.75876     -4.45177        -0.108637      0.060545     -0.061848
O	     -2.09656      4.21838     -0.10101        -0.030895      0.064676     -0.070146
O	     -0.04833      4.28368     -2.06988        -0.010857      0.002765      0.001844
O	      2.05311      6.34236     -2.12163        -0.018264      0.111439     -0.112747
O	      0.09075      1.96483      0.09768         0.095371     -0.035728      0.034112
O	      2.03104      4.32879      0.10412         0.010498      0.009963      0.030116
