# total energy = -103.80815156 eV
 
CRYSTAL
PRIMVEC
2.056567 4.255507 2.056535 
2.092828 -4.292533 2.092768 
4.156518 0.000020 -4.156397 
PRIMCOORD
16 1
Li	      4.13725     -0.00022     -4.13522         0.015784      0.006451      0.094100
Li	      2.07135      2.13627     -0.00281         0.024081     -0.042151     -0.009425
Li	      2.10452      0.00026     -2.10223         0.080332      0.002932      0.059108
Li	      4.17631     -2.15607     -2.07051        -0.009237      0.044655      0.056595
Ti	      2.01552     -2.15624      0.09024        -0.054022      0.247210      0.161488
Ti	      4.23660     -0.01825     -0.06419        -0.054045     -0.048118     -0.322399
Ni	      4.17903      2.13853     -2.10992        -0.034116     -0.195233      0.083909
Ni	      2.09153     -0.01828      2.08097         0.026551     -0.021157     -0.185112
O	      4.11901     -2.02361      0.01458        -0.183323      0.416390      0.031143
O	      2.16818     -0.15503     -0.00895         0.317058     -0.268486      0.031900
O	      4.15786      1.98735      0.05325        -0.039733     -0.411426      0.208206
O	      2.09598     -2.14882      2.02704         0.037847      0.074059     -0.519092
O	      4.18152      0.11923      2.00418        -0.011857      0.168163     -0.264987
O	      4.18620      0.07820     -2.01160        -0.050828     -0.030191      0.579053
O	      2.14530      2.11243      2.07651         0.445814     -0.082021     -0.070241
O	      6.18441     -0.11485     -0.01358        -0.510303      0.138921      0.065756
