# total energy = -103.68295178 eV
 
CRYSTAL
PRIMVEC
2.066799 4.276679 2.066766 
2.103240 -4.313888 2.103179 
4.177198 0.000020 -4.177075 
PRIMCOORD
16 1
Li	      0.00132     -0.00024      0.00061         0.047103      0.010091      0.171128
Li	      2.09201      2.15757     -0.00284         0.042117     -0.085340     -0.023298
Li	      2.12552      0.00027     -2.12320         0.156906      0.008368      0.115072
Li	      4.21797     -2.17758     -2.09116        -0.024783      0.090575      0.117224
Ti	      2.03563     -2.17776      0.09114        -0.016961      0.485382      0.213495
Ti	      4.27886     -0.01843     -0.06483        -0.206435     -0.095132     -0.542903
Ni	      4.22072      2.15987     -2.13097        -0.075248     -0.375934      0.175085
Ni	      2.11239     -0.01846      2.10173         0.049215     -0.041312     -0.361962
O	      4.16010     -2.04380      0.01472        -0.252343      0.713368      0.054173
O	      2.18980     -0.15658     -0.00904         0.563299     -0.419035      0.164396
O	      4.19934      2.00718      0.05378        -0.070747     -0.703122      0.308241
O	      2.11689     -2.17025      2.04725         0.077443      0.206686     -0.774510
O	      4.22323      0.12041      2.02417        -0.123309      0.234802     -0.458473
O	      4.22795      0.07898     -2.03167         0.008798      0.052609      0.962525
O	      2.16670      2.13350      2.09722         0.654416     -0.231687     -0.141140
O	      6.24610     -0.11600     -0.01371        -0.829471      0.149680      0.020949
