# total energy = -103.21198389 eV
 
CRYSTAL
PRIMVEC
2.087262 4.319022 2.087229 
2.124064 -4.356600 2.124003 
4.218556 0.000020 -4.218433 
PRIMCOORD
16 1
Li	      0.04312     -0.00025     -0.04115         0.107113      0.017347      0.324440
Li	      2.13364      2.20051     -0.00289         0.072174     -0.167752     -0.055165
Li	      2.16782      0.00027     -2.16545         0.290971      0.017833      0.221164
Li	      4.30191     -2.22091     -2.13278        -0.051054      0.175438      0.231667
Ti	      2.07613     -2.22109      0.09295         0.030970      0.916027      0.278345
Ti	      4.36401     -0.01880     -0.06612        -0.497762     -0.181380     -0.948302
Ni	      4.30470      2.20285     -2.17338        -0.150960     -0.698419      0.339564
Ni	      2.15443     -0.01883      2.14355         0.058737     -0.073007     -0.674377
O	      4.24289     -2.08447      0.01502        -0.354443      1.228893      0.104292
O	      2.23338     -0.15970     -0.00922         0.996971     -0.674879      0.388171
O	      4.28291      2.04712      0.05486        -0.129009     -1.215082      0.509329
O	      2.15901     -2.21344      2.08799         0.159159      0.437305     -1.223621
O	      4.30727      0.12281      2.06446        -0.316195      0.367498     -0.790394
O	      4.31209      0.08055     -2.07210         0.131479      0.187090      1.652565
O	      2.20982      2.17596      2.13896         1.028758     -0.507292     -0.285815
O	      6.37040     -0.11831     -0.01399        -1.376910      0.170381     -0.071864
