# total energy = -102.48187297 eV
 
CRYSTAL
PRIMVEC
2.107725 4.361366 2.107692 
2.144888 -4.399312 2.144826 
4.259914 0.000020 -4.259790 
PRIMCOORD
16 1
Li	      0.08573     -0.00025     -0.08372         0.163269      0.019275      0.478160
Li	      2.17568      2.24387     -0.00295         0.097720     -0.246065     -0.089897
Li	      2.21053      0.00028     -2.20811         0.411258      0.026996      0.311311
Li	      4.38667     -2.26467     -2.17480        -0.073349      0.252154      0.339757
Ti	      2.11704     -2.26486      0.09479         0.055123      1.292785      0.301427
Ti	      4.44999     -0.01917     -0.06742        -0.772678     -0.257210     -1.305343
Ni	      4.38953      2.24625     -2.21620        -0.210426     -0.967539      0.483343
Ni	      2.19688     -0.01920      2.18579         0.035308     -0.104268     -0.935133
O	      4.32649     -2.12554      0.01531        -0.425877      1.646216      0.156446
O	      2.27739     -0.16284     -0.00941         1.352312     -0.874207      0.573095
O	      4.36730      2.08745      0.05593        -0.189641     -1.640777      0.712854
O	      2.20156     -2.25706      2.12913         0.230061      0.637927     -1.606828
O	      4.39214      0.12523      2.10513        -0.476765      0.496793     -1.070008
O	      4.39705      0.08214     -2.11293         0.258595      0.294748      2.231043
O	      2.25336      2.21883      2.18111         1.366510     -0.764471     -0.419576
O	      6.49593     -0.12064     -0.01427        -1.821418      0.187642     -0.160652
