# total energy = -102.03203318 eV
 
CRYSTAL
PRIMVEC
2.117957 4.382537 2.117924 
2.155301 -4.420668 2.155238 
4.280593 0.000020 -4.280468 
PRIMCOORD
16 1
Li	      0.10735     -0.00025     -0.10532         0.188221      0.019547      0.560031
Li	      2.19685      2.26570     -0.00298         0.107509     -0.281959     -0.108441
Li	      2.23204      0.00028     -2.22961         0.463366      0.031897      0.352513
Li	      4.42937     -2.28671     -2.19597        -0.082781      0.284242      0.394282
Ti	      2.13765     -2.28690      0.09571         0.062051      1.462296      0.299276
Ti	      4.49330     -0.01935     -0.06808        -0.902852     -0.291231     -1.468319
Ni	      4.43225      2.26812     -2.23777        -0.233998     -1.082668      0.552974
Ni	      2.21826     -0.01939      2.20706         0.010026     -0.113228     -1.052031
O	      4.36859     -2.14623      0.01546        -0.451487      1.824036      0.182458
O	      2.29955     -0.16443     -0.00950         1.507854     -0.955437      0.655001
O	      4.40980      2.10777      0.05648        -0.216402     -1.827204      0.809955
O	      2.22298     -2.27902      2.14986         0.258685      0.725995     -1.773968
O	      4.43489      0.12645      2.12562        -0.545001      0.559058     -1.196068
O	      4.43985      0.08293     -2.13349         0.323551      0.337680      2.484044
O	      2.27529      2.24043      2.20234         1.520240     -0.886535     -0.487278
O	      6.55915     -0.12181     -0.01440        -2.008983      0.193512     -0.204429
