# total energy = -101.53073071 eV
 
CRYSTAL
PRIMVEC
2.128189 4.403709 2.128155 
2.165713 -4.442024 2.165650 
4.301273 0.000020 -4.301147 
PRIMCOORD
16 1
Li	      0.12917     -0.00026     -0.12712         0.215675      0.018051      0.641005
Li	      2.21813      2.28765     -0.00301         0.115608     -0.316068     -0.126810
Li	      2.25366      0.00028     -2.25120         0.516411      0.036139      0.390947
Li	      4.47226     -2.30886     -2.21723        -0.090478      0.318205      0.445331
Ti	      2.15835     -2.30905      0.09663         0.066041      1.623031      0.291092
Ti	      4.53682     -0.01954     -0.06874        -1.028083     -0.321626     -1.617826
Ni	      4.47518      2.29008     -2.25944        -0.252984     -1.190857      0.616233
Ni	      2.23975     -0.01957      2.22844        -0.020020     -0.122789     -1.158840
O	      4.41090     -2.16701      0.01561        -0.473360      1.986260      0.206901
O	      2.32182     -0.16602     -0.00959         1.649730     -1.026926      0.729103
O	      4.45251      2.12819      0.05703        -0.247708     -1.997040      0.906296
O	      2.24451     -2.30109      2.17068         0.289496      0.804514     -1.926956
O	      4.47784      0.12767      2.14621        -0.606601      0.626266     -1.310166
O	      4.48285      0.08375     -2.15415         0.385219      0.370006      2.717915
O	      2.29733      2.26212      2.22367         1.663930     -1.006883     -0.553108
O	      6.62267     -0.12299     -0.01454        -2.182877      0.199718     -0.251116
