# total energy = -100.39124146 eV
 
CRYSTAL
PRIMVEC
2.148652 4.446052 2.148618 
2.186537 -4.484736 2.186474 
4.342631 0.000021 -4.342504 
PRIMCOORD
16 1
Li	      0.17341     -0.00026     -0.17133         0.263012      0.011887      0.816884
Li	      2.26099      2.33185     -0.00307         0.130806     -0.378160     -0.165802
Li	      2.29721      0.00029     -2.29470         0.610745      0.045640      0.459168
Li	      4.55869     -2.35348     -2.26008        -0.104123      0.378176      0.544129
Ti	      2.20005     -2.35367      0.09850         0.068180      1.910126      0.254253
Ti	      4.62449     -0.01992     -0.07007        -1.265146     -0.374990     -1.886022
Ni	      4.56165      2.33434     -2.30310        -0.279138     -1.368060      0.734687
Ni	      2.28303     -0.01995      2.27149        -0.101114     -0.136297     -1.337764
O	      4.49613     -2.20888      0.01591        -0.495700      2.262769      0.253315
O	      2.36669     -0.16923     -0.00977         1.884440     -1.146353      0.858955
O	      4.53855      2.16931      0.05813        -0.295722     -2.291122      1.090325
O	      2.28789     -2.34556      2.21262         0.341663      0.934257     -2.202678
O	      4.56437      0.13014      2.18768        -0.722675      0.747801     -1.521721
O	      4.56947      0.08536     -2.19578         0.516482      0.425867      3.127867
O	      2.34172      2.30584      2.26663         1.916728     -1.222878     -0.682060
O	      6.75064     -0.12537     -0.01482        -2.468438      0.201335     -0.343537
