# total energy = -91.51361928 eV
 
CRYSTAL
PRIMVEC
0.000033 2.071898 2.070334 
8.382011 -4.183728 4.180644 
2.079027 2.085907 -4.154501 
PRIMCOORD
16 1
Li	      4.28960      1.94494     -1.94403        -0.016787      0.003479      0.002886
Li	      4.25411     -0.02393      0.02761        -0.005722     -0.012985      0.010495
Li	      6.17142     -0.04744      2.11344        -0.000611      0.017133     -0.009464
Li	      8.22820     -1.97374      1.97503         0.001449      0.004557     -0.006289
Mn	      8.38028     -4.17496      4.17504         0.020907     -0.016747      0.020930
Mn	      2.17189      2.06125      0.01391         0.020033      0.001388     -0.005862
Ni	      6.27216     -0.00816     -2.05947        -0.110211      0.006681     -0.007229
Ni	      6.28186     -2.03768      4.10962         0.051625     -0.047220      0.048599
O	      2.09607      2.07793     -2.07395         0.006460      0.000473     -0.001589
O	      6.29531      0.11482     -0.10994        -0.072298     -0.104485      0.102917
O	      6.28840     -2.11337      2.11358         0.070997      0.100653     -0.100631
O	      8.56896      0.05675      2.01823         0.051847     -0.086241      0.079567
O	      8.51185     -2.16016      4.23256         0.060367      0.010745     -0.014972
O	      1.96620      0.06259     -0.05866        -0.023855     -0.000964     -0.000798
O	      4.01286      2.01886      0.05492        -0.059388      0.004877      0.000861
O	      4.14993     -0.16234      2.23350         0.005187      0.118656     -0.119421
