# total energy = -98.22486407 eV
 
CRYSTAL
PRIMVEC
1.987703 3.872051 1.987932 
1.989375 -3.874025 1.989463 
4.071178 -0.000134 -4.071426 
PRIMCOORD
16 1
Li	      3.87282     -0.00216      3.68240         0.170051      0.065906      1.083521
Li	      3.70435     -1.84162      1.96076        -0.318685     -1.123038      0.253403
Li	      1.90694     -0.00072      1.86971        -1.113189     -0.195064      0.092974
Li	      3.77872      1.83787      1.88468        -0.172336      1.061794      0.588752
Ti	      3.70482     -0.00121      0.07134        -0.236018     -0.539082     -4.895401
Ti	      5.84925      1.83796     -0.18428         1.681775      3.743528      1.944995
Ni	      5.68921     -0.00218      1.86522         3.151900      0.097111      2.725844
Ni	      5.75494     -1.84125     -0.08861         1.541272     -2.333786      0.429627
O	      3.86597     -1.78182     -0.13491        -1.827249     -4.576115      1.314991
O	      2.01674      0.02070     -0.05068        -6.375326      0.119433     -0.439162
O	      3.91083      1.77944     -0.08972        -1.675504      4.633874      1.018939
O	      5.64869     -1.86230     -1.95124         2.588826     -1.101887     -2.344052
O	      3.82650     -0.02314      1.75921        -1.063776      0.010925      7.276584
O	      3.79962     -0.05974     -1.86675        -0.616338      0.528684     -3.003543
O	      5.72748      1.85995     -1.87224         1.192640      1.071265     -5.182565
O	      5.64272      0.05751     -0.02348         3.071955     -1.463546     -0.864906
