# total energy = -99.42844436 eV
 
CRYSTAL
PRIMVEC
1.998165 3.892430 1.998395 
1.999845 -3.894414 1.999934 
4.092605 -0.000135 -4.092855 
PRIMCOORD
16 1
Li	      3.91369     -0.00219      3.72127         0.160357      0.058429      0.938748
Li	      3.74345     -1.86106      1.98146        -0.281932     -0.969411      0.220198
Li	      1.92706     -0.00073      1.88945        -0.979648     -0.176335      0.065307
Li	      3.81860      1.85727      1.90456        -0.149168      0.918849      0.507513
Ti	      3.74392     -0.00122      0.07210        -0.255463     -0.469823     -4.277262
Ti	      5.91099      1.85736     -0.18622         1.417540      3.253917      1.586885
Ni	      5.74925     -0.00221      1.88491         2.711823      0.086347      2.339680
Ni	      5.81567     -1.86068     -0.08954         1.289640     -2.021436      0.310705
O	      3.90678     -1.80062     -0.13634        -1.586695     -3.905100      1.181687
O	      2.03802      0.02091     -0.05122        -5.444472      0.103660     -0.352750
O	      3.95210      1.79822     -0.09066        -1.436528      3.954635      0.935042
O	      5.70831     -1.88196     -1.97183         2.277595     -1.002457     -2.031509
O	      3.86689     -0.02338      1.77778        -0.903059      0.011490      6.267020
O	      3.83972     -0.06037     -1.88645        -0.545582      0.443458     -2.546813
O	      5.78793      1.87958     -1.89199         1.083924      0.952586     -4.424389
O	      5.70227      0.05812     -0.02373         2.641668     -1.238810     -0.720063
