# total energy = -100.46533743 eV
 
CRYSTAL
PRIMVEC
2.008626 3.912810 2.008858 
2.010315 -3.914804 2.010405 
4.114033 -0.000135 -4.114283 
PRIMCOORD
16 1
Li	      3.95478     -0.00221      3.76034         0.149323      0.049077      0.803957
Li	      3.78275     -1.88060      2.00226        -0.246878     -0.827553      0.191594
Li	      1.94729     -0.00073      1.90929        -0.857654     -0.158035      0.038130
Li	      3.85869      1.87677      1.92456        -0.126291      0.785004      0.440291
Ti	      3.78322     -0.00123      0.07285        -0.270829     -0.404416     -3.683740
Ti	      5.97304      1.87686     -0.18818         1.186320      2.795449      1.268012
Ni	      5.80962     -0.00223      1.90470         2.306984      0.074703      1.989309
Ni	      5.87673     -1.88022     -0.09048         1.075405     -1.730792      0.209877
O	      3.94779     -1.81952     -0.13777        -1.366359     -3.286042      1.048376
O	      2.05942      0.02114     -0.05175        -4.582891      0.086564     -0.276516
O	      3.99360      1.81710     -0.09161        -1.215032      3.327900      0.842645
O	      5.76824     -1.90172     -1.99254         1.972490     -0.894895     -1.746004
O	      3.90749     -0.02363      1.79645        -0.761979      0.010069      5.324787
O	      3.88003     -0.06100     -1.90626        -0.474147      0.362680     -2.132442
O	      5.84869      1.89932     -1.91186         0.972062      0.838863     -3.724351
O	      5.76214      0.05873     -0.02397         2.239476     -1.028575     -0.593923
