# total energy = -102.67791163 eV
 
CRYSTAL
PRIMVEC
2.040011 3.973947 2.040246 
2.041726 -3.975973 2.041817 
4.178314 -0.000137 -4.178569 
PRIMCOORD
16 1
Li	      4.07933     -0.00228      3.87877         0.110789      0.027661      0.443057
Li	      3.90188     -1.93983      2.06532        -0.153206     -0.456552      0.120222
Li	      2.00862     -0.00076      1.96941        -0.502843     -0.100118      0.002695
Li	      3.98022      1.93588      1.98517        -0.075178      0.435601      0.254023
Ti	      3.90237     -0.00127      0.07515        -0.292278     -0.228141     -2.039835
Ti	      6.16116      1.93597     -0.19411         0.673346      1.588667      0.507616
Ni	      5.99258     -0.00230      1.96469         1.248208      0.044159      1.097590
Ni	      6.06181     -1.93943     -0.09333         0.560288     -0.970822      0.015650
O	      4.07212     -1.87683     -0.14211        -0.793894     -1.704433      0.632413
O	      2.12428      0.02180     -0.05338        -2.380786      0.045144     -0.093422
O	      4.11937      1.87433     -0.09450        -0.651489      1.722962      0.566489
O	      5.94990     -1.96161     -2.05529         1.085878     -0.569070     -1.009673
O	      4.03055     -0.02437      1.85302        -0.427571      0.007954      2.855697
O	      4.00223     -0.06292     -1.96629        -0.254407      0.138807     -1.110422
O	      6.03289      1.95913     -1.97207         0.636824      0.505306     -1.922726
O	      5.94361      0.06057     -0.02473         1.216320     -0.487126     -0.319374
