# total energy = -103.14860048 eV
 
CRYSTAL
PRIMVEC
2.050473 3.994327 2.050709 
2.052197 -3.996362 2.052288 
4.199742 -0.000138 -4.199997 
PRIMCOORD
16 1
Li	      4.12128     -0.00230      3.91865         0.095374      0.020955      0.339520
Li	      3.94201     -1.95977      2.08656        -0.124770     -0.348981      0.099261
Li	      2.02928     -0.00076      1.98966        -0.394128     -0.081084     -0.010543
Li	      4.02115      1.95578      2.00559        -0.061803      0.332805      0.200715
Ti	      3.94250     -0.00128      0.07592        -0.292101     -0.176960     -1.537098
Ti	      6.22451      1.95587     -0.19610         0.552787      1.234117      0.311041
Ni	      6.05420     -0.00232      1.98489         0.950274      0.034242      0.851030
Ni	      6.12415     -1.95937     -0.09429         0.429618     -0.750262     -0.016902
O	      4.11399     -1.89613     -0.14357        -0.631163     -1.260776      0.496713
O	      2.14612      0.02203     -0.05394        -1.757571      0.035295     -0.044776
O	      4.16173      1.89361     -0.09547        -0.494760      1.273527      0.472885
O	      6.01108     -1.98178     -2.07642         0.802137     -0.457196     -0.802882
O	      4.07200     -0.02462      1.87207        -0.346378      0.009346      2.138091
O	      4.04338     -0.06357     -1.98651        -0.182158      0.069460     -0.830264
O	      6.09493      1.97928     -1.99235         0.528535      0.399966     -1.413443
O	      6.00473      0.06120     -0.02498         0.926108     -0.334453     -0.253348
