# total energy = -103.74088629 eV
 
CRYSTAL
PRIMVEC
2.071396 4.035085 2.071634 
2.073138 -4.037142 2.073230 
4.242596 -0.000140 -4.242854 
PRIMCOORD
16 1
Li	      4.20582     -0.00235      3.99903         0.066748      0.009622      0.143725
Li	      4.02287     -1.99997      2.12935        -0.074686     -0.160680      0.064849
Li	      2.07090     -0.00078      2.03048        -0.184023     -0.041349     -0.015585
Li	      4.10363      1.99590      2.04672        -0.035874      0.155655      0.103548
Ti	      4.02337     -0.00131      0.07748        -0.281313     -0.081968     -0.597916
Ti	      6.35219      1.99599     -0.20013         0.370910      0.584998     -0.011694
Ni	      6.17839     -0.00237      2.02560         0.410020      0.016243      0.407757
Ni	      6.24977     -1.99957     -0.09622         0.209315     -0.351611     -0.050181
O	      4.19838     -1.93502     -0.14651        -0.347892     -0.478511      0.230094
O	      2.19014      0.02248     -0.05504        -0.655577      0.014927      0.041504
O	      4.24710      1.93245     -0.09743        -0.213898      0.483515      0.284786
O	      6.13438     -2.02243     -2.11901         0.254219     -0.231297     -0.427580
O	      4.15553     -0.02513      1.91047        -0.206551      0.005043      0.845355
O	      4.12632     -0.06487     -2.02726        -0.037264     -0.061114     -0.358317
O	      6.21995      2.01988     -2.03322         0.311742      0.191486     -0.502352
O	      6.12790      0.06245     -0.02550         0.414125     -0.054959     -0.157991
