# total energy = -103.87928800 eV
 
CRYSTAL
PRIMVEC
2.081857 4.055464 2.082097 
2.083608 -4.057531 2.083701 
4.264023 -0.000140 -4.264283 
PRIMCOORD
16 1
Li	      4.24840     -0.00237      4.03953         0.043196      0.004267      0.057087
Li	      4.06360     -2.02023      2.15092        -0.050317     -0.077024      0.047310
Li	      2.09188     -0.00079      2.05104        -0.085203     -0.022363     -0.015671
Li	      4.14518      2.01611      2.06745        -0.022974      0.075901      0.057386
Ti	      4.06411     -0.00132      0.07826        -0.271293     -0.039401     -0.162106
Ti	      6.41652      2.01621     -0.20215         0.304572      0.285624     -0.141857
Ni	      6.24095     -0.00240      2.04612         0.175516      0.007753      0.216993
Ni	      6.31305     -2.01982     -0.09720         0.122523     -0.169030     -0.054698
O	      4.24090     -1.95462     -0.14800        -0.217937     -0.139338      0.103264
O	      2.21232      0.02270     -0.05560        -0.172693      0.006348      0.076004
O	      4.29010      1.95202     -0.09842        -0.089605      0.139847      0.194023
O	      6.19650     -2.04291     -2.14047        -0.008605     -0.114880     -0.260103
O	      4.19760     -0.02538      1.92982        -0.150005      0.005128      0.268567
O	      4.16810     -0.06553     -2.04779         0.030185     -0.117911     -0.159040
O	      6.28294      2.04033     -2.05381         0.206544      0.094755     -0.102328
O	      6.18996      0.06309     -0.02575         0.186096      0.060324     -0.124832
