# total energy = -103.87441314 eV
 
CRYSTAL
PRIMVEC
2.102781 4.096223 2.103023 
2.104549 -4.098310 2.104642 
4.306878 -0.000142 -4.307140 
PRIMCOORD
16 1
Li	      0.12690     -0.00033     -0.08653         0.008684     -0.002686     -0.108198
Li	      2.04115      2.03728      0.08973        -0.007605      0.075264      0.014350
Li	      2.13413     -0.00080      2.09247         0.105573      0.018865     -0.007801
Li	      2.12614     -2.03938      0.00620        -0.001065     -0.068714     -0.026834
Ti	      4.14621     -0.00135      0.07984        -0.241136      0.038036      0.645427
Ti	      4.44336     -2.03928     -2.30926         0.215535     -0.266153     -0.352145
Ni	      2.15970     -0.00035     -2.12022        -0.250089     -0.006424     -0.109363
Ni	      4.33604      2.03769     -2.20380        -0.020654      0.156189     -0.033237
O	      4.32657     -1.99410     -0.15099         0.007690      0.457371     -0.143996
O	      2.25701      0.02316     -0.05672         0.674331     -0.012849      0.129460
O	      4.37677      1.99145     -0.10041         0.125369     -0.457679      0.008449
O	      6.32168     -2.08418     -2.18371        -0.512127      0.121752      0.040335
O	      4.28240     -0.02589      1.96881        -0.063785      0.000822     -0.761083
O	      4.25231     -0.06685     -2.08915         0.168794     -0.227083      0.184228
O	      6.40986      2.08155     -2.09530         0.003444     -0.098905      0.604526
O	      6.31500      0.06436     -0.02628        -0.212960      0.272195     -0.084119
