# total energy = -103.74465388 eV
 
CRYSTAL
PRIMVEC
2.113242 4.116602 2.113486 
2.115019 -4.118700 2.115113 
4.328305 -0.000142 -4.328569 
PRIMCOORD
16 1
Li	      0.14920     -0.00035     -0.06636        -0.008005     -0.007132     -0.184709
Li	      2.07203      2.03711      0.10114         0.009379      0.140656     -0.001180
Li	      2.15542     -0.00081      2.11335         0.198817      0.039079     -0.003847
Li	      2.15787     -2.03924      0.01677         0.005844     -0.130471     -0.066418
Ti	      4.18757     -0.00136      0.08064        -0.222415      0.071834      1.017111
Ti	      4.49819     -2.03914     -2.32178         0.188293     -0.522530     -0.434600
Ni	      2.20228     -0.00037     -2.12033        -0.432965     -0.012702     -0.248571
Ni	      4.38981      2.03753     -2.21526        -0.074840      0.304712     -0.012268
O	      4.36973     -2.01399     -0.15249         0.107529      0.714470     -0.258080
O	      2.27953      0.02340     -0.05729         1.037557     -0.021447      0.152614
O	      4.42043      2.01131     -0.10141         0.218944     -0.717441     -0.079079
O	      6.38474     -2.10497     -2.20550        -0.751624      0.237944      0.177168
O	      4.32512     -0.02615      1.98845        -0.030754      0.000111     -1.218731
O	      4.29472     -0.06752     -2.10999         0.236762     -0.274986      0.324346
O	      6.47380      2.10231     -2.11620        -0.096066     -0.186707      0.910378
O	      6.37799      0.06500     -0.02654        -0.386457      0.364612     -0.074134
