# total energy = -103.53757864 eV
 
CRYSTAL
PRIMVEC
2.123704 4.136981 2.123948 
2.125490 -4.139090 2.125584 
4.349732 -0.000143 -4.349997 
PRIMCOORD
16 1
Li	      0.17172     -0.00036     -0.04598        -0.030118     -0.010514     -0.258338
Li	      2.10312      2.03683      0.11267         0.027034      0.202091     -0.019109
Li	      2.17681     -0.00082      2.13432         0.289424      0.058147      0.004484
Li	      2.18980     -2.03900      0.02745         0.012333     -0.191406     -0.103395
Ti	      4.22914     -0.00138      0.08143        -0.200051      0.102045      1.368214
Ti	      4.55336     -2.03890     -2.33431         0.169832     -0.769515     -0.504182
Ni	      2.24517     -0.00038     -2.12034        -0.614657     -0.020654     -0.380960
Ni	      4.44391      2.03726     -2.22673        -0.120714      0.451150      0.009233
O	      4.41310     -2.03399     -0.15400         0.203919      0.949974     -0.367572
O	      2.30215      0.02362     -0.05785         1.372640     -0.026577      0.172296
O	      4.46431      2.03128     -0.10241         0.310282     -0.945808     -0.163994
O	      6.44811     -2.12586     -2.22739        -0.986073      0.347905      0.306794
O	      4.36805     -0.02641      2.00818        -0.004597     -0.001466     -1.639162
O	      4.33735     -0.06819     -2.13094         0.308801     -0.317038      0.454078
O	      6.53805      2.12318     -2.13720        -0.189176     -0.272498      1.196990
O	      6.44130      0.06565     -0.02680        -0.548879      0.444163     -0.075377
