# total energy = -89.47094360 eV
 
CRYSTAL
PRIMVEC
0.000057 2.107682 -2.107666 
0.000218 2.107684 2.107668 
16.297664 0.001099 0.000492 
PRIMCOORD
16 1
Li	      4.39463      4.21321     -0.00039        -0.003304      0.000794     -0.000069
Li	      6.21348      2.10837      0.00059        -0.068576      0.000045     -0.000253
Li	     10.14553      2.11021      0.00197         0.024601     -0.000641     -0.001040
Li	     14.03725      2.10793      0.00075         0.040538     -0.000116      0.000146
Mn	     16.10773      4.21431      0.00024        -0.068403      0.000233      0.000276
Mn	      2.18841      2.10495     -0.00065         0.073534      0.000975      0.000570
Ni	      8.18514      0.00199      0.00117         0.094357     -0.000840      0.000100
Ni	     12.09944      2.10923     -2.10630         0.076898     -0.000552     -0.000227
O	     14.28927      4.21522      0.00079         0.084970      0.000739     -0.000490
O	      0.08754      2.10527     -0.00034        -0.010210      0.000702      0.000025
O	     10.07484      0.00257      0.00168         0.040658     -0.002064     -0.001338
O	     12.14475      2.10931      0.00143        -0.023364     -0.000913     -0.000969
O	      6.32758      0.00148      0.00080        -0.208687     -0.001745     -0.000165
O	      8.18637      2.10992      0.00124         0.013814     -0.000169      0.000617
O	      1.88308      4.21255     -0.00066         0.007356      0.002071      0.000896
O	      3.97365      2.10487     -0.00098        -0.074182      0.001482      0.001921
