# total energy = -102.04515303 eV
 
CRYSTAL
PRIMVEC
2.165550 4.218498 2.165800 
2.167371 -4.220648 2.167468 
4.435442 -0.000146 -4.435711 
PRIMCOORD
16 1
Li	      0.26393     -0.00042      0.03758        -0.104875     -0.017027     -0.535783
Li	      2.22952      2.03473      0.15986         0.082744      0.387492     -0.087141
Li	      2.26345     -0.00085      2.21926         0.622491      0.136837      0.048090
Li	      2.31962     -2.03703      0.07122         0.037205     -0.370156     -0.246983
Ti	      4.39744     -0.00143      0.08468        -0.094137      0.200564      2.567644
Ti	      4.77724     -2.03693     -2.38453         0.155139     -1.653378     -0.676826
Ni	      2.41990     -0.00044     -2.11933        -1.172339     -0.040413     -0.778425
Ni	      4.66347      2.03517     -2.27264        -0.249175      0.933868      0.144013
O	      4.58873     -2.11493     -0.16014         0.520343      1.675696     -0.772353
O	      2.39378      0.02457     -0.06016         2.416096     -0.040323      0.219904
O	      4.64197      2.11212     -0.10649         0.595159     -1.658839     -0.478815
O	      2.26929     -2.21032      2.11968        -1.822353      0.803167      0.748404
O	      4.54188     -0.02746      2.08810         0.048808     -0.005916     -3.001243
O	      4.50997     -0.07090     -2.21574         0.568998     -0.461856      0.847847
O	      2.36281      2.20782      2.21346        -0.543077     -0.578387      2.114584
O	      6.69765      0.06826     -0.02786        -1.061027      0.688670     -0.112917
