# total energy = -101.52826736 eV
 
CRYSTAL
PRIMVEC
2.176012 4.238877 2.176262 
2.177842 -4.241038 2.177939 
4.456869 -0.000147 -4.457140 
PRIMCOORD
16 1
Li	      0.28752     -0.00043      0.05897        -0.125151     -0.015739     -0.606909
Li	      2.26164      2.03395      0.17193         0.095132      0.428621     -0.109346
Li	      2.28537     -0.00086      2.24076         0.702001      0.156510      0.063999
Li	      2.35259     -2.03628      0.08242         0.043543     -0.408077     -0.285387
Ti	      4.44004     -0.00145      0.08550        -0.065482      0.220280      2.817378
Ti	      4.83402     -2.03618     -2.39712         0.160734     -1.852112     -0.698500
Ni	      2.46437     -0.00045     -2.11882        -1.277561     -0.044291     -0.843706
Ni	      4.71916      2.03440     -2.28413        -0.266129      1.032809      0.187483
O	      4.63317     -2.13541     -0.16169         0.586670      1.811945     -0.860490
O	      2.41696      0.02481     -0.06074         2.616801     -0.041767      0.226926
O	      4.68693      2.13258     -0.10752         0.649292     -1.789762     -0.548335
O	      2.31280     -2.23173      2.11868        -2.011290      0.915737      0.849405
O	      4.58587     -0.02773      2.10833         0.048994     -0.007654     -3.270199
O	      4.55365     -0.07159     -2.23721         0.634395     -0.490597      0.923297
O	      2.40722      2.22920      2.21336        -0.624796     -0.649274      2.291406
O	      6.76251      0.06892     -0.02813        -1.167153      0.733370     -0.137021
