# total energy = -100.35422478 eV
 
CRYSTAL
PRIMVEC
2.196935 4.279636 2.197188 
2.198782 -4.281817 2.198880 
4.499723 -0.000148 -4.499997 
PRIMCOORD
16 1
Li	      0.33534     -0.00046      0.10238        -0.160732     -0.014004     -0.744444
Li	      2.32648      2.03208      0.19640         0.115570      0.490823     -0.150119
Li	      2.32953     -0.00088      2.28405         0.852816      0.195345      0.100226
Li	      2.41917     -2.03448      0.10514         0.054349     -0.468826     -0.357762
Ti	      4.52583     -0.00147      0.08715        -0.002640      0.250544      3.263414
Ti	      4.94855     -2.03437     -2.42231         0.174930     -2.231656     -0.723821
Ni	      2.55426     -0.00048     -2.11750        -1.473715     -0.051826     -0.973158
Ni	      4.83149      2.03254     -2.30712        -0.295991      1.226758      0.260000
O	      4.72270     -2.17668     -0.16481         0.701499      2.039568     -1.011724
O	      2.46366      0.02528     -0.06192         2.954673     -0.047690      0.234223
O	      4.77750      2.17379     -0.10960         0.747469     -2.001277     -0.675871
O	      2.40075     -2.27485      2.11635        -2.351676      1.128200      1.029763
O	      4.67448     -0.02826      2.14907         0.049100     -0.010108     -3.725468
O	      4.64163     -0.07297     -2.28043         0.754400     -0.538097      1.059166
O	      2.49701      2.27228      2.21286        -0.775860     -0.771842      2.603781
O	      6.89318      0.07025     -0.02868        -1.344191      0.804088     -0.188206
