# total energy = -99.08115260 eV
 
CRYSTAL
PRIMVEC
1.936227 4.097774 1.936116 
1.943299 -4.105125 1.942996 
3.891262 -0.000078 -3.890876 
PRIMCOORD
16 1
Li	      5.52602      3.88918     -1.84983         1.044726      0.433264     -0.475973
Li	      3.69823     -1.95500      1.83146        -0.274821     -0.531032      0.354163
Li	      3.68619     -0.00336     -0.00343        -0.966233     -0.243148      0.194035
Li	      5.53748      1.94243     -0.01583         1.078688      0.204767      0.027396
Ti	      5.47703     -0.00567     -1.79385         2.623950     -0.796219     -5.358171
Ti	      3.74777      1.94030      1.77593         1.111033      2.219507      4.139894
Ni	      5.64083     -0.21511      1.92160        -0.238415      3.797701      1.195129
Ni	      5.52602     -1.95634      0.00252         1.194730     -3.147459     -1.046849
O	      3.63878     -2.04336     -0.00351         1.131460     -1.053566     -0.875678
O	      1.83528     -0.15947      0.04771        -1.851283      0.572348     -1.083961
O	      3.68658      2.03055      0.04464         0.164584     -0.899112     -4.150918
O	      1.85262     -1.79909      1.79059        -1.156848     -2.535242      2.215190
O	      3.63518      0.14726      1.84786         1.085118     -2.949369      1.685691
O	      3.74582      0.08398     -1.85433        -3.411790     -0.205518     -1.531913
O	      1.89181      1.78707      1.83008        -3.097217      3.405860      0.897535
O	      5.53721     -0.09705     -0.06293         1.562319      1.727216      3.814432
