# total energy = -100.07674429 eV
 
CRYSTAL
PRIMVEC
1.946418 4.119341 1.946307 
1.953527 -4.126731 1.953222 
3.911743 -0.000078 -3.911355 
PRIMCOORD
16 1
Li	      5.58435      3.93023     -1.86935         0.933722      0.379809     -0.427687
Li	      3.73726     -1.97563      1.85079        -0.262699     -0.467662      0.286232
Li	      3.72510     -0.00340     -0.00347        -0.861118     -0.215139      0.174479
Li	      5.59593      1.96293     -0.01600         0.930864      0.172628      0.028474
Ti	      5.53483     -0.00574     -1.81278         2.210526     -0.725641     -4.675238
Ti	      3.78733      1.96078      1.79467         0.933708      1.917075      3.539492
Ni	      5.69008     -0.19566      1.93160        -0.217970      3.327924      1.064751
Ni	      5.58435     -1.97699      0.00255         0.994021     -2.714531     -0.920801
O	      3.67718     -2.06492     -0.00355         1.038125     -0.946707     -0.763543
O	      1.85465     -0.16116      0.04821        -1.630672      0.487887     -0.939879
O	      3.72549      2.05198      0.04511         0.168819     -0.749752     -3.533309
O	      1.87217     -1.81808      1.80948        -1.024098     -2.242177      1.965174
O	      3.67355      0.14881      1.86736         0.957998     -2.509006      1.488166
O	      3.78536      0.08487     -1.87390        -2.868875     -0.211736     -1.327020
O	      1.91178      1.80593      1.84940        -2.665845      3.016305      0.812864
O	      5.59565     -0.09807     -0.06360         1.363494      1.480721      3.227846
