# total energy = -100.94083476 eV
 
CRYSTAL
PRIMVEC
1.956609 4.140909 1.956497 
1.963754 -4.148337 1.963448 
3.932223 -0.000079 -3.931833 
PRIMCOORD
16 1
Li	      5.64298      3.97149     -1.88898         0.826372      0.334818     -0.381066
Li	      3.77649     -1.99638      1.87022        -0.235277     -0.413034      0.228257
Li	      3.76420     -0.00344     -0.00350        -0.760420     -0.188544      0.155796
Li	      5.65468      1.98354     -0.01617         0.800740      0.146235      0.029773
Ti	      5.59294     -0.00579     -1.83181         1.834197     -0.652337     -4.032817
Ti	      3.82709      1.98136      1.81351         0.777006      1.637651      2.986696
Ni	      5.73953     -0.17600      1.94160        -0.198532      2.882510      0.939752
Ni	      5.64298     -1.99774      0.00257         0.817397     -2.312111     -0.796881
O	      3.71579     -2.08661     -0.00359         0.929851     -0.840653     -0.661811
O	      1.87412     -0.16285      0.04872        -1.422154      0.408338     -0.803903
O	      3.76460      2.07353      0.04558         0.161020     -0.623374     -2.961024
O	      1.89182     -1.83717      1.82848        -0.901450     -1.952271      1.720701
O	      3.71211      0.15038      1.88697         0.830921     -2.108182      1.297199
O	      3.82509      0.08576     -1.89357        -2.367395     -0.213322     -1.139953
O	      1.93185      1.82489      1.86881        -2.264447      2.633779      0.729251
O	      5.65440     -0.09911     -0.06427         1.172168      1.260497      2.690030
