# total energy = -92.27456176 eV
 
CRYSTAL
PRIMVEC
-0.000237 2.073245 2.073796 
6.152137 6.288708 -4.217459 
-4.131713 2.119016 -2.119282 
PRIMCOORD
16 1
Li	      0.03703      6.34567     -2.19875         0.006104      0.019619     -0.021567
Li	      1.83829      6.13210     -4.05975        -0.023952     -0.009460      0.009123
Li	      4.07111      8.26832     -4.12755        -0.011783     -0.005395      0.012698
Li	     -0.01233      4.29021     -0.14026        -0.013564     -0.014354      0.008576
Mn	     -4.11920      4.18534     -0.04219         0.013922      0.023365     -0.016830
Mn	     -1.97840      4.23358     -2.15992         0.048800     -0.011408      0.006340
Ni	      2.01422      4.24754     -2.17483        -0.107503     -0.084090      0.081960
Ni	      4.05794      6.24740     -2.10359         0.044961      0.030581     -0.028360
O	      4.30035      6.28667     -4.21876         0.091550      0.074236     -0.068109
O	     -0.09979      6.35936     -4.28845         0.108970     -0.110802      0.109509
O	      2.09801      8.54150     -4.40152         0.069666      0.046676     -0.038174
O	     -2.12002      4.30933     -0.16488        -0.018979     -0.002778      0.009486
O	     -0.13390      4.18011     -2.10419        -0.102126     -0.000499     -0.006335
O	      2.02398      6.23704     -2.09123        -0.110855      0.125468     -0.123092
O	      0.09792      1.96839      0.10236        -0.004252     -0.029867      0.027021
O	      2.00812      4.08936      0.06040         0.009040     -0.051293      0.037755
