# total energy = -92.05510199 eV
 
CRYSTAL
PRIMVEC
4.067349 -0.000094 0.000015 
-2.034063 4.165520 -6.307403 
-2.033655 4.141157 2.086240 
PRIMCOORD
16 1
Li	      0.00195      4.33656     -0.14674        -0.002832      0.026979      0.014090
Li	      0.00185      2.18269     -2.19042        -0.003098     -0.011868      0.007681
Li	      0.00125      6.18495     -2.06767         0.003531      0.000689     -0.013329
Li	     -2.03278      6.10245     -4.09179         0.001562      0.012976     -0.019677
Mn	      0.00133      8.24364     -4.22508        -0.001632     -0.123861     -0.012690
Mn	      2.03540      2.11290     -0.03217         0.000092      0.051331     -0.004817
Ni	     -2.03221      4.20876     -2.06295        -0.000436      0.011978     -0.006117
Ni	      0.00112      4.05172     -4.14319         0.000713      0.030320     -0.079678
O	     -2.03244      6.14563     -2.11249         0.005583      0.080903      0.002721
O	      2.03525      4.01928      0.09304         0.000496     -0.046358      0.043863
O	      0.00158      6.32037     -4.38788        -0.002822     -0.033579     -0.047257
O	      2.03536      0.11761      0.02958         0.000156      0.164986     -0.083676
O	      2.03488      4.09825     -4.35523         0.001368     -0.003756     -0.006371
O	      2.03526      2.21953     -1.91235        -0.000077     -0.139154      0.078663
O	      0.00144      4.19757     -2.15821         0.000708     -0.027596      0.124441
O	      0.00181      1.89089     -0.01770        -0.003312      0.006010      0.002155
