# total energy = -102.30328615 eV
 
CRYSTAL
PRIMVEC
1.976990 4.184043 1.976877 
1.984210 -4.191549 1.983901 
3.973184 -0.000080 -3.972790 
PRIMCOORD
16 1
Li	      5.76115      4.05466     -1.92854         0.613868      0.245317     -0.287210
Li	      3.85558     -2.03818      1.90939        -0.184766     -0.304618      0.138747
Li	      3.84303     -0.00351     -0.00357        -0.552232     -0.138958      0.119310
Li	      5.77310      2.02508     -0.01650         0.562037      0.094557      0.029633
Ti	      5.71007     -0.00591     -1.87018         1.188114     -0.498456     -2.848483
Ti	      3.90724      2.02286      1.85149         0.528037      1.136520      2.010181
Ni	      5.83906     -0.13602      1.96160        -0.156085      2.072058      0.695303
Ni	      5.76115     -2.03958      0.00263         0.520790     -1.596075     -0.564585
O	      3.79361     -2.13030     -0.00366         0.680900     -0.626259     -0.472593
O	      1.91337     -0.16626      0.04974        -1.030018      0.264835     -0.546487
O	      3.84344      2.11695      0.04654         0.142546     -0.417667     -1.950901
O	      1.93145     -1.87564      1.86677        -0.668638     -1.393689      1.237138
O	      3.78986      0.15353      1.92648         0.583158     -1.399183      0.936824
O	      3.90520      0.08755     -1.93323        -1.508360     -0.205942     -0.796224
O	      1.97231      1.86311      1.90795        -1.538890      1.896167      0.559307
O	      5.77281     -0.10118     -0.06561         0.819539      0.871393      1.740040
