# total energy = -102.81511358 eV
 
CRYSTAL
PRIMVEC
1.987181 4.205610 1.987067 
1.994438 -4.213155 1.994127 
3.993664 -0.000080 -3.993268 
PRIMCOORD
16 1
Li	      5.82070      4.09657     -1.94847         0.506047      0.201089     -0.238225
Li	      3.89543     -2.05925      1.92912        -0.156391     -0.250719      0.100783
Li	      3.88275     -0.00355     -0.00361        -0.453759     -0.114240      0.097921
Li	      5.83276      2.04601     -0.01667         0.450911      0.076398      0.029340
Ti	      5.76908     -0.00598     -1.88951         0.910310     -0.418503     -2.297320
Ti	      3.94762      2.04377      1.87062         0.429240      0.913201      1.580175
Ni	      5.88913     -0.11571      1.97159        -0.129828      1.694214      0.572499
Ni	      5.82069     -2.06066      0.00265         0.403221     -1.276211     -0.459031
O	      3.83281     -2.15232     -0.00370         0.539043     -0.519458     -0.384800
O	      1.93315     -0.16798      0.05025        -0.845446      0.202355     -0.423733
O	      3.88317      2.13883      0.04702         0.126467     -0.337008     -1.506460
O	      1.95141     -1.89503      1.88607        -0.555518     -1.128048      0.999193
O	      3.82902      0.15511      1.94639         0.458181     -1.090336      0.770226
O	      3.94556      0.08846     -1.95321        -1.131321     -0.199889     -0.638839
O	      1.99270      1.88237      1.92767        -1.215978      1.537862      0.468978
O	      5.83247     -0.10223     -0.06629         0.664821      0.709294      1.329292
