# total energy = -103.22200967 eV
 
CRYSTAL
PRIMVEC
1.997371 4.227177 1.997257 
2.004666 -4.234761 2.004354 
4.014144 -0.000080 -4.013746 
PRIMCOORD
16 1
Li	      5.88055      4.13869     -1.96850         0.399569      0.158720     -0.189622
Li	      3.93548     -2.08043      1.94896        -0.126058     -0.199213      0.070410
Li	      3.92268     -0.00358     -0.00365        -0.361030     -0.089894      0.079584
Li	      5.89274      2.06705     -0.01684         0.346890      0.055825      0.026671
Ti	      5.82840     -0.00604     -1.90893         0.660242     -0.335705     -1.773987
Ti	      3.98821      2.06478      1.88986         0.344518      0.705710      1.182744
Ni	      5.93941     -0.09519      1.98159        -0.104158      1.332756      0.456203
Ni	      5.88055     -2.08185      0.00268         0.297810     -0.977674     -0.351372
O	      3.87222     -2.17445     -0.00374         0.393978     -0.407608     -0.301716
O	      1.95302     -0.16970      0.05077        -0.665832      0.142121     -0.308618
O	      3.92310      2.16082      0.04750         0.105004     -0.269086     -1.096130
O	      1.97148     -1.91452      1.90546        -0.438441     -0.867401      0.765281
O	      3.86840      0.15671      1.96640         0.338522     -0.812391      0.605237
O	      3.98613      0.08937     -1.97329        -0.795151     -0.188371     -0.497573
O	      2.01318      1.90172      1.94749        -0.914256      1.192288      0.378649
O	      5.89245     -0.10328     -0.06697         0.518394      0.559922      0.954238
