# total energy = -103.52901779 eV
 
CRYSTAL
PRIMVEC
2.007562 4.248745 2.007447 
2.014894 -4.256367 2.014580 
4.034625 -0.000081 -4.034225 
PRIMCOORD
16 1
Li	      5.94071      4.18103     -1.98864         0.296573      0.118227     -0.139620
Li	      3.97575     -2.10171      1.96890        -0.093858     -0.149814      0.044428
Li	      3.96281     -0.00362     -0.00369        -0.264211     -0.068111      0.058159
Li	      5.95303      2.08819     -0.01702         0.252125      0.039715      0.019745
Ti	      5.88803     -0.00610     -1.92846         0.434220     -0.253087     -1.270856
Ti	      4.02901      2.08590      1.90919         0.273061      0.512150      0.819013
Ni	      5.98989     -0.07444      1.99158        -0.078148      0.987769      0.336120
Ni	      5.94071     -2.10315      0.00271         0.201685     -0.705437     -0.251219
O	      3.91184     -2.19670     -0.00377         0.236907     -0.289697     -0.219420
O	      1.97300     -0.17144      0.05129        -0.492147      0.084315     -0.195468
O	      3.96323      2.18293      0.04799         0.079611     -0.212787     -0.717552
O	      1.99164     -1.93410      1.92495        -0.325071     -0.619695      0.536546
O	      3.90797      0.15831      1.98652         0.221950     -0.556566      0.448667
O	      4.02691      0.09029     -1.99348        -0.489119     -0.175289     -0.363227
O	      2.03378      1.92118      1.96741        -0.632538      0.857899      0.285853
O	      5.95273     -0.10433     -0.06766         0.378962      0.430408      0.608832
