# total energy = -103.86697398 eV
 
CRYSTAL
PRIMVEC
2.027943 4.291879 2.027827 
2.035350 -4.299578 2.035033 
4.075585 -0.000082 -4.075181 
PRIMCOORD
16 1
Li	      6.06194      4.26635     -2.02923         0.092062      0.040003     -0.041179
Li	      4.05688     -2.14459      2.00908        -0.026506     -0.048560      0.003685
Li	      4.04368     -0.00369     -0.00376        -0.082891     -0.023592      0.013703
Li	      6.07451      2.13081     -0.01736         0.071848      0.009020      0.014757
Ti	      6.00819     -0.00623     -1.96782         0.048330     -0.084261     -0.326706
Ti	      4.11124      2.12847      1.94816         0.161152      0.161304      0.171959
Ni	      6.09147     -0.03232      2.01156        -0.016422      0.324260      0.101288
Ni	      6.06194     -2.14607      0.00276         0.049146     -0.216267     -0.067999
O	      3.99167     -2.24153     -0.00385        -0.082319     -0.029730     -0.071365
O	      2.01327     -0.17494      0.05234        -0.159940     -0.016980      0.021044
O	      4.04411      2.22747      0.04897         0.025371     -0.142355     -0.053423
O	      2.03229     -1.97357      1.96424        -0.105488     -0.151896      0.092652
O	      3.98773      0.16154      2.02706        -0.008413     -0.118738      0.147261
O	      4.10909      0.09213     -2.03416         0.023748     -0.139398     -0.112876
O	      2.07528      1.96038      2.00757        -0.113612      0.226720      0.094092
O	      6.07421     -0.10647     -0.06904         0.123934      0.210469      0.013107
