# total energy = -103.86535560 eV
 
CRYSTAL
PRIMVEC
2.048325 4.335014 2.048207 
2.055805 -4.342790 2.055485 
4.116546 -0.000083 -4.116138 
PRIMCOORD
16 1
Li	      0.01953      0.01761     -0.00229        -0.105778     -0.034836      0.058334
Li	      2.08304      2.15487     -0.00582         0.042866      0.047557     -0.020208
Li	      4.12537     -0.00377     -0.00384         0.093397      0.017488     -0.028293
Li	      4.14890     -2.16116     -2.06592        -0.081688     -0.011477      0.000996
Ti	      6.12956     -0.00635     -2.00757        -0.265613      0.085582      0.545499
Ti	      2.14596     -2.16354     -0.06070         0.075245     -0.147169     -0.380916
Ni	      4.14554     -4.32433     -0.01667         0.045528     -0.321575     -0.125034
Ni	      4.12860      2.15337     -2.05266        -0.074375      0.199990      0.090348
O	      4.07231     -2.28680     -0.00393        -0.401909      0.280284      0.073003
O	      2.05394     -0.17847      0.05339         0.150197     -0.110777      0.223692
O	      4.12581      2.27247      0.04996        -0.033394     -0.108826      0.505479
O	      2.07334     -2.01344      2.00392         0.119323      0.272583     -0.335295
O	      4.06828      0.16481      2.06801        -0.236061      0.230492     -0.134892
O	      4.19210      0.09399     -2.07526         0.434212     -0.098431      0.104141
O	      2.11721      1.99998      2.04812         0.346665     -0.345615     -0.100881
O	      6.19692     -0.10862     -0.07043        -0.108615      0.044729     -0.475972
