# total energy = -103.74859820 eV
 
CRYSTAL
PRIMVEC
2.058515 4.356581 2.058398 
2.066033 -4.364396 2.065711 
4.137026 -0.000083 -4.136616 
PRIMCOORD
16 1
Li	      0.05055      0.03946     -0.01265        -0.201269     -0.073895      0.110992
Li	      2.11409      2.15465      0.00440         0.077291      0.095570     -0.028766
Li	      4.16652     -0.00381     -0.00388         0.174332      0.037141     -0.049972
Li	      4.20053     -2.16104     -2.07629        -0.154681     -0.022130     -0.004893
Ti	      6.19071     -0.00641     -2.02760        -0.398793      0.169989      0.958268
Ti	      2.17761     -2.16345     -0.05106         0.040190     -0.287181     -0.626072
Ni	      4.18685     -4.32408     -0.01687         0.083519     -0.643008     -0.236828
Ni	      4.18006      2.15314     -2.06286        -0.118992      0.380633      0.164526
O	      4.11293     -2.30962     -0.00397        -0.567074      0.458410      0.135490
O	      2.07443     -0.18025      0.05393         0.298014     -0.155842      0.319278
O	      4.16696      2.29514      0.05045        -0.061998     -0.102995      0.750890
O	      2.09402     -2.03352      2.02391         0.227459      0.470376     -0.536348
O	      4.10886      0.16645      2.08864        -0.345099      0.380546     -0.274984
O	      4.23392      0.09492     -2.09596         0.604319     -0.072594      0.203660
O	      2.13833      2.01994      2.06855         0.559680     -0.609967     -0.198274
O	      6.25873     -0.10970     -0.07113        -0.216899     -0.025054     -0.686966
