# total energy = -103.55876396 eV
 
CRYSTAL
PRIMVEC
2.068706 4.378148 2.068588 
2.076261 -4.386002 2.075938 
4.157507 -0.000083 -4.157094 
PRIMCOORD
16 1
Li	      0.08188      0.06152     -0.02312        -0.296606     -0.112413      0.163417
Li	      2.14535      2.15432      0.01472         0.109946      0.146634     -0.034335
Li	      4.20787     -0.00384     -0.00391         0.257331      0.055116     -0.071863
Li	      4.25246     -2.16081     -2.08666        -0.228124     -0.031763     -0.010357
Ti	      6.25215     -0.00648     -2.04772        -0.516111      0.254995      1.356100
Ti	      2.20947     -2.16325     -0.04133         0.008739     -0.419671     -0.852789
Ni	      4.22837     -4.32362     -0.01707         0.114225     -0.974057     -0.344823
Ni	      4.23183      2.15280     -2.07306        -0.163928      0.553581      0.230681
O	      4.15375     -2.33254     -0.00401        -0.725090      0.656776      0.198991
O	      2.09502     -0.18204      0.05446         0.443093     -0.199071      0.412556
O	      4.20832      2.31792      0.05096        -0.090593     -0.105857      0.971316
O	      2.11481     -2.05371      2.04400         0.340615      0.650823     -0.732409
O	      4.14965      0.16810      2.10937        -0.448589      0.513064     -0.409844
O	      4.27594      0.09587     -2.11676         0.754907     -0.045502      0.296785
O	      2.15955      2.03998      2.08908         0.759281     -0.860393     -0.295767
O	      6.32085     -0.11079     -0.07184        -0.319097     -0.082261     -0.877657
