# total energy = -92.48372019 eV
 
CRYSTAL
PRIMVEC
2.009694 4.136647 2.026550 
4.098152 -2.087285 -2.067868 
-0.007162 4.204103 -4.179743 
PRIMCOORD
16 1
Li	      4.03952      4.16641     -0.14931         0.012602      0.001847      0.015109
Li	      4.04249      2.23604     -2.11145        -0.006057      0.031589      0.012788
Li	      2.10653      4.10793     -2.11057         0.000362     -0.013538      0.004691
Li	      4.07272      4.13338     -4.08720        -0.007431     -0.005868     -0.028231
Mn	      6.08322      2.05426     -0.03516         0.026554      0.049823     -0.000807
Mn	      2.06505      2.06344     -0.07091        -0.018342     -0.020308     -0.013456
Ni	      6.06892      4.14044     -2.15064         0.038121     -0.074620     -0.017975
Ni	      2.07902      2.05449     -4.13069        -0.014270      0.115056      0.071098
O	      4.10476      4.20445     -2.11934        -0.168013     -0.145060     -0.000663
O	      4.06827      2.08544     -4.33237         0.146944      0.083324     -0.059898
O	      4.05948      2.06176      0.00671         0.011487      0.007752     -0.103507
O	      4.21917     -0.16185     -2.11774         0.030907     -0.040528      0.101025
O	      1.96895      4.02733      0.07483         0.003780     -0.060271      0.019291
O	      2.01485      2.06750     -1.98719         0.089691      0.002277      0.100540
O	      2.05784      6.40217     -2.21905        -0.109075      0.021280     -0.093277
O	      1.90002      4.29207     -4.16742        -0.037258      0.047243     -0.006730
