# total energy = -102.97504612 eV
 
CRYSTAL
PRIMVEC
2.089087 4.421283 2.088968 
2.096717 -4.429214 2.096390 
4.198467 -0.000084 -4.198051 
PRIMCOORD
16 1
Li	      0.14545      0.10630     -0.04435        -0.478669     -0.187041      0.270817
Li	      2.20849      2.15335      0.03566         0.174980      0.243223     -0.039414
Li	      4.29119     -0.00392     -0.00399         0.406245      0.091078     -0.114186
Li	      4.35725     -2.16004     -2.10739        -0.358906     -0.044320     -0.028722
Ti	      2.17749     -0.00652      2.10978        -0.711140      0.421580      2.105276
Ti	      2.27380     -2.16252     -0.02156        -0.051099     -0.663552     -1.259130
Ni	      4.31202     -4.32203     -0.01749         0.186163     -1.664424     -0.551775
Ni	      4.33628      2.15179     -2.09346        -0.243841      0.844832      0.345103
O	      4.23601     -2.37873     -0.00409        -1.034522      1.114576      0.319639
O	      2.13650     -0.18564      0.05554         0.723312     -0.281142      0.591489
O	      4.29165      2.36382      0.05196        -0.152389     -0.134947      1.354303
O	      2.15669     -2.09437      2.08447         0.564661      0.979163     -1.109641
O	      4.23181      0.17143      2.15114        -0.657027      0.737793     -0.679691
O	      4.36061      0.09776     -2.15868         1.005210      0.013381      0.471803
O	      2.20231      2.08038      2.13045         1.129016     -1.301162     -0.475988
O	      6.44602     -0.11299     -0.07326        -0.501994     -0.169040     -1.199883
