# total energy = -101.63290977 eV
 
CRYSTAL
PRIMVEC
2.119659 4.485984 2.119538 
2.127401 -4.494032 2.127069 
4.259908 -0.000085 -4.259486 
PRIMCOORD
16 1
Li	      0.24309      0.17508     -0.07698        -0.727361     -0.307443      0.424935
Li	      2.30474      2.15106      0.06784         0.265949      0.391605     -0.034481
Li	      4.41771     -0.00403     -0.00411         0.613779      0.138075     -0.176444
Li	      4.51673     -2.15808     -2.13851        -0.545519     -0.055052     -0.056244
Ti	      2.30402     -0.00672      2.10965        -0.908747      0.661508      3.110810
Ti	      2.37186     -2.16063      0.00882        -0.143111     -0.979589     -1.762935
Ni	      4.43904     -4.31804     -0.01811         0.306509     -2.853087     -0.844015
Ni	      4.49526      2.14946     -2.12405        -0.355754      1.175141      0.475854
O	      4.36089     -2.44886     -0.00421        -1.476834      2.046822      0.498152
O	      2.19949     -0.19112      0.05718         1.116282     -0.386477      0.844142
O	      4.41818      2.43351      0.05350        -0.239779     -0.212080      1.803952
O	      2.22027     -2.15612      2.14592         0.907832      1.378267     -1.599850
O	      4.35658      0.17648      2.21456        -0.955349      0.972174     -1.072455
O	      4.48917      0.10065     -2.22232         1.264160      0.106938      0.696190
O	      2.26724      2.14171      2.19326         1.619173     -1.829848     -0.744639
O	      6.63606     -0.11631     -0.07543        -0.741229     -0.246953     -1.562973
