# total energy = -100.56164418 eV
 
CRYSTAL
PRIMVEC
1.992936 3.990141 1.992685 
4.043402 -4.034387 0.030349 
4.013010 -0.000080 -4.012382 
PRIMCOORD
16 1
Li	      9.62683     -0.05720     -1.91214         0.608361      0.095061      0.008657
Li	      1.94267      1.92319     -0.00741        -0.583264      0.123354      0.064469
Li	      1.92748      0.00615     -1.90696        -0.336664      0.047101      0.227673
Li	      7.72886     -1.97252     -1.92677         0.308626     -0.399076     -0.381131
Ti	      5.71054      1.88987      0.07038         1.802920      1.716773      1.816864
Ti	      5.85882     -0.02550     -1.99152        -1.831075     -0.851933     -2.386127
Ni	      7.69756      1.88974     -1.91690         2.232707      2.114231     -0.525522
Ni	      3.87131     -0.02519     -0.00440        -0.808181     -0.780174      0.941534
O	      3.84801     -1.94256     -0.07555        -0.456899     -2.063380      1.541985
O	      5.79282      0.06043     -0.07450         1.914621     -1.984854      2.248148
O	      1.95542     -0.02358      0.09355        -2.040953     -0.113372     -0.516241
O	      3.94347      1.89172      0.01913        -3.211883      2.010008      0.070734
O	      5.71385     -1.85479     -1.90866         1.212491     -3.190250      0.007758
O	      7.62597     -0.02748     -1.94029         4.443659     -1.034814      0.701142
O	      3.94203     -0.11152     -1.92549        -2.240241      0.823399     -2.208442
O	      5.77653      1.80366     -1.84671        -1.014223      3.487926     -1.611500
