# total energy = -101.38350020 eV
 
CRYSTAL
PRIMVEC
2.003316 4.010923 2.003064 
4.064462 -4.055400 0.030507 
4.033911 -0.000080 -4.033280 
PRIMCOORD
16 1
Li	      9.72737     -0.05780     -1.93211         0.520487      0.082387      0.014316
Li	      1.96295      1.94327     -0.00749        -0.491016      0.096425      0.046071
Li	      1.94761      0.00622     -1.92688        -0.279244      0.041240      0.210124
Li	      7.80958     -1.99312     -1.94689         0.253696     -0.338847     -0.324823
Ti	      5.77018      1.90961      0.07111         1.456990      1.406442      1.517577
Ti	      5.92000     -0.02576     -2.01232        -1.532500     -0.720823     -1.984141
Ni	      7.77795      1.90947     -1.93692         1.887958      1.775683     -0.447870
Ni	      3.91175     -0.02546     -0.00445        -0.706583     -0.674935      0.753453
O	      3.88819     -1.96284     -0.07634        -0.396193     -1.762502      1.299113
O	      5.85332      0.06106     -0.07528         1.615289     -1.624200      1.877200
O	      1.97584     -0.02382      0.09453        -1.734522     -0.074463     -0.440676
O	      3.98466      1.91147      0.01933        -2.660065      1.696338      0.036833
O	      5.77353     -1.87416     -1.92860         1.049721     -2.655179      0.022700
O	      7.70562     -0.02776     -1.96055         3.707722     -0.864681      0.625261
O	      3.98320     -0.11269     -1.94560        -1.852356      0.711934     -1.874684
O	      5.83686      1.82250     -1.86600        -0.839383      2.905181     -1.330454
