# total energy = -102.06935123 eV
 
CRYSTAL
PRIMVEC
2.013696 4.031705 2.013442 
4.085521 -4.076412 0.030665 
4.054812 -0.000081 -4.054178 
PRIMCOORD
16 1
Li	      9.82843     -0.05840     -1.95219         0.435762      0.073810      0.015153
Li	      1.98335      1.96346     -0.00756        -0.405818      0.071356      0.029984
Li	      1.96784      0.00628     -1.94690        -0.229828      0.037813      0.186757
Li	      7.89072     -2.01383     -1.96712         0.212849     -0.279362     -0.269055
Ti	      5.83013      1.92945      0.07185         1.147461      1.129399      1.248701
Ti	      5.98151     -0.02603     -2.03323        -1.249078     -0.597022     -1.620502
Ni	      7.85876      1.92931     -1.95705         1.560366      1.459324     -0.376921
Ni	      3.95239     -0.02572     -0.00449        -0.603087     -0.569579      0.588636
O	      3.92859     -1.98323     -0.07713        -0.338862     -1.479050      1.073395
O	      5.91413      0.06170     -0.07606         1.339242     -1.297367      1.533776
O	      1.99637     -0.02407      0.09551        -1.450370     -0.040428     -0.364967
O	      4.02606      1.93133      0.01953        -2.149378      1.403880      0.008835
O	      5.83351     -1.89363     -1.94864         0.891825     -2.165150      0.037601
O	      7.78568     -0.02805     -1.98092         3.026677     -0.710238      0.546917
O	      4.02459     -0.11386     -1.96582        -1.501298      0.596168     -1.564786
O	      5.89750      1.84144     -1.88538        -0.686463      2.366445     -1.073524
