# total energy = -102.62956298 eV
 
CRYSTAL
PRIMVEC
2.024076 4.052487 2.023821 
4.106581 -4.097425 0.030823 
4.075713 -0.000081 -4.075076 
PRIMCOORD
16 1
Li	      9.93001     -0.05901     -1.97236         0.355347      0.062659      0.014245
Li	      2.00385      1.98375     -0.00764        -0.326860      0.048951      0.017437
Li	      1.98818      0.00635     -1.96702        -0.184280      0.031414      0.158916
Li	      7.97228     -2.03464     -1.98745         0.169546     -0.222665     -0.217661
Ti	      5.89039      1.94939      0.07260         0.871175      0.881001      1.005365
Ti	      6.04333     -0.02630     -2.05424        -0.981528     -0.481561     -1.293620
Ni	      7.93999      1.94925     -1.97727         1.259583      1.165389     -0.306723
Ni	      3.99324     -0.02599     -0.00454        -0.500539     -0.465787      0.447807
O	      3.96920     -2.00373     -0.07793        -0.276970     -1.214533      0.848210
O	      5.97526      0.06234     -0.07685         1.088058     -1.000955      1.216999
O	      2.01701     -0.02432      0.09649        -1.185084     -0.010244     -0.285062
O	      4.06767      1.95130      0.01974        -1.677243      1.134848     -0.017185
O	      5.89381     -1.91320     -1.96877         0.731814     -1.710049      0.050255
O	      7.86615     -0.02834     -2.00140         2.389424     -0.574001      0.473392
O	      4.06619     -0.11504     -1.98613        -1.181442      0.485297     -1.272140
O	      5.95846      1.86047     -1.90487        -0.551001      1.870233     -0.840236
