# total energy = -103.40588582 eV
 
CRYSTAL
PRIMVEC
2.044836 4.094051 2.044578 
4.148699 -4.139450 0.031139 
4.117516 -0.000082 -4.116871 
PRIMCOORD
16 1
Li	     10.13475     -0.06022     -2.01303         0.203911      0.038659      0.015306
Li	      2.04517      2.02465     -0.00780        -0.180460      0.019731      0.000986
Li	      2.02917      0.00648     -2.00757        -0.103763      0.020931      0.103229
Li	      8.13665     -2.07659     -2.02843         0.096741     -0.125725     -0.126223
Ti	      6.01184      1.98958      0.07409         0.405879      0.462750      0.591222
Ti	      6.16794     -0.02684     -2.09660        -0.496115     -0.270795     -0.736312
Ni	      8.10370      1.98944     -2.01804         0.709978      0.641177     -0.176271
Ni	      4.07557     -0.02652     -0.00463        -0.297163     -0.270701      0.220913
O	      4.05103     -2.04505     -0.07954        -0.136648     -0.723701      0.419114
O	      6.09846      0.06362     -0.07843         0.642224     -0.489808      0.658269
O	      2.05859     -0.02482      0.09848        -0.708904      0.041530     -0.112012
O	      4.15153      1.99153      0.02014        -0.850915      0.658125     -0.060048
O	      6.01532     -1.95265     -2.00937         0.422181     -0.904150      0.072176
O	      8.02833     -0.02893     -2.04266         1.252270     -0.342570      0.318490
O	      4.15002     -0.11741     -2.02708        -0.628690      0.256139     -0.753647
O	      6.08131      1.89882     -1.94415        -0.330527      0.988409     -0.435193
