# total energy = -91.57718316 eV
 
CRYSTAL
PRIMVEC
-0.000142 2.004502 2.005446 
2.223471 -2.033776 0.028253 
10.975753 12.209058 0.028467 
PRIMCOORD
16 1
Li	      2.20855      2.01592     -0.00940        -0.001118      0.001204     -0.000072
Li	      4.53373      6.11479     -2.11190        -0.005340     -0.019796      0.018508
Li	      8.79895      6.10263     -6.09548         0.006862      0.001062     -0.000171
Li	     10.85229     10.12782     -8.10112         0.007070      0.018898     -0.018844
Mn	     13.14122     12.17062     -8.13721        -0.003283     -0.016713      0.010248
Mn	      4.47320      2.03815     -2.04843         0.002854      0.015372     -0.009287
Ni	      6.64358      6.10910     -4.10843         0.002539     -0.001834      0.016759
Ni	      8.74361     10.13147     -6.10269        -0.001444      0.006154     -0.014046
O	     10.87183     12.25674     -8.22300         0.001056     -0.016990      0.014773
O	      8.78311      8.22045     -6.19842        -0.051495     -0.116296      0.115187
O	     10.94333      8.00602     -7.98652         0.034656      0.119216     -0.122036
O	      6.60753      8.01932     -4.01172         0.049875      0.127179     -0.127908
O	      4.51810      3.98578     -1.99085        -0.002524      0.016020     -0.013048
O	      6.66672      4.19746     -4.20264        -0.030849     -0.125722      0.124669
O	      2.22540     -0.09422      0.10836         0.003159      0.001909     -0.009228
O	      2.19137      4.12772     -0.12727        -0.012019     -0.009661      0.014495
