# total energy = -103.77562941 eV
 
CRYSTAL
PRIMVEC
2.065595 4.135615 2.065335 
4.190818 -4.181474 0.031456 
4.159318 -0.000083 -4.158667 
PRIMCOORD
16 1
Li	     10.34158     -0.06145     -2.05411         0.060682      0.011891      0.009371
Li	      2.08690      2.06597     -0.00796        -0.050558      0.004745     -0.006674
Li	      2.07058      0.00661     -2.04854        -0.035945      0.009755      0.042303
Li	      8.30270     -2.11897     -2.06983         0.033505     -0.040492     -0.047925
Ti	      6.13452      2.03019      0.07561         0.041343      0.133310      0.256036
Ti	      6.29381     -0.02739     -2.13938        -0.075976     -0.084981     -0.292236
Ni	      8.26907      2.03004     -2.05922         0.225414      0.194991     -0.056549
Ni	      4.15874     -0.02706     -0.00473        -0.099358     -0.090100      0.063576
O	      4.13370     -2.08678     -0.08116         0.012058     -0.290901      0.023362
O	      6.22291      0.06492     -0.08003         0.263634     -0.084088      0.182377
O	      2.10060     -0.02533      0.10050        -0.288018      0.081098      0.068705
O	      4.23626      2.03217      0.02055        -0.148057      0.267286     -0.085475
O	      6.13808     -1.99250     -2.05038         0.116042     -0.215967      0.090649
O	      8.19217     -0.02952     -2.08435         0.277282     -0.166066      0.165788
O	      4.23471     -0.11980     -2.06845        -0.169931      0.028256     -0.301941
O	      6.20541      1.93757     -1.98382        -0.162117      0.241262     -0.111366
