# total energy = -103.79463321 eV
 
CRYSTAL
PRIMVEC
2.086355 4.177179 2.086092 
4.232937 -4.223499 0.031772 
4.201120 -0.000084 -4.200463 
PRIMCOORD
16 1
Li	      0.03008     -0.01629     -0.01301        -0.084993     -0.013913      0.000111
Li	      2.12906      2.10771     -0.00812         0.067601     -0.001122     -0.007729
Li	      2.11241      0.00674     -2.08993         0.023388      0.000912     -0.018101
Li	      4.23749      2.06172     -2.14341        -0.022261      0.034758      0.018540
Ti	      4.17209     -2.10598     -2.00896        -0.235627     -0.123393     -0.017501
Ti	      6.42095     -0.02794     -2.18260         0.284481      0.075665      0.054048
Ni	      2.14865     -2.10605      0.01355        -0.202445     -0.183766      0.049381
Ni	      4.24276     -0.02761     -0.00483         0.095181      0.078002     -0.038744
O	      4.21721     -2.12894     -0.08280         0.172831      0.095864     -0.342700
O	      6.34863      0.06623     -0.08165        -0.054965      0.238560     -0.216806
O	      2.14304     -0.02584      0.10252         0.097425      0.105479      0.251426
O	      4.32183      2.07322      0.02097         0.435252     -0.060742     -0.094894
O	      6.26208     -2.03275     -2.09180        -0.168093      0.368645      0.108740
O	      8.35767     -0.03011     -2.12645        -0.563735     -0.031852      0.014765
O	      4.32026     -0.12223     -2.11024         0.205073     -0.200357      0.089646
O	      6.33077      1.97672     -2.02390        -0.049114     -0.382740      0.149817
