# total energy = -103.68815179 eV
 
CRYSTAL
PRIMVEC
2.096735 4.197961 2.096471 
4.253996 -4.244512 0.031930 
4.222021 -0.000084 -4.221360 
PRIMCOORD
16 1
Li	      0.08298     -0.01668     -0.02355        -0.162685     -0.027509     -0.006102
Li	      2.15030      2.12873     -0.00820         0.121962      0.000103     -0.004898
Li	      2.13348      0.00681     -2.11077         0.049061     -0.006998     -0.047729
Li	      4.30092      2.06117     -2.16463        -0.046418      0.067743      0.045592
Ti	      4.22414     -2.10610     -2.01857        -0.347758     -0.229635     -0.134400
Ti	      6.48500     -0.02822     -2.20437         0.441745      0.146767      0.196710
Ni	      2.20152     -2.10617      0.00311        -0.397449     -0.345473      0.098220
Ni	      4.28508     -0.02788     -0.00487         0.189264      0.160646     -0.073501
O	      4.25928     -2.15017     -0.08363         0.257418      0.273452     -0.512992
O	      6.41195      0.06689     -0.08247        -0.192855      0.369365     -0.392616
O	      2.16441     -0.02610      0.10355         0.281948      0.112560      0.348463
O	      4.36495      2.09391      0.02118         0.690829     -0.202360     -0.094255
O	      6.32454     -2.05303     -2.11266        -0.305203      0.630293      0.111853
O	      8.44103     -0.03041     -2.14766        -0.940052      0.022340     -0.060706
O	      4.36335     -0.12344     -2.13128         0.365606     -0.315727      0.266744
O	      6.39392      1.99644     -2.04409        -0.005413     -0.655567      0.259615
