# total energy = -103.51054530 eV
 
CRYSTAL
PRIMVEC
2.107115 4.218743 2.106849 
4.275056 -4.265524 0.032088 
4.242922 -0.000084 -4.242258 
PRIMCOORD
16 1
Li	      0.13640     -0.01708     -0.03420        -0.242722     -0.044352     -0.010310
Li	      2.17164      2.14986     -0.00828         0.171496      0.003235      0.000585
Li	      2.15466      0.00688     -2.13172         0.075995     -0.010812     -0.076647
Li	      4.36478      2.06052     -2.18596        -0.068009      0.096983      0.073496
Ti	      4.27650     -2.10613     -2.02817        -0.445422     -0.321776     -0.240817
Ti	      6.54937     -0.02850     -2.22625         0.583267      0.212845      0.321045
Ni	      2.25480     -2.10619     -0.00743        -0.589626     -0.494437      0.137106
Ni	      4.32761     -0.02816     -0.00492         0.283417      0.240455     -0.094597
O	      4.30155     -2.17151     -0.08445         0.347690      0.442391     -0.673755
O	      6.47559      0.06756     -0.08328        -0.323691      0.486314     -0.556507
O	      2.18590     -0.02636      0.10458         0.465458      0.117355      0.445747
O	      4.40827      2.11469      0.02139         0.923240     -0.327810     -0.089369
O	      6.38732     -2.07341     -2.13363        -0.436579      0.867851      0.116659
O	      8.52481     -0.03071     -2.16898        -1.284573      0.067235     -0.136605
O	      4.40666     -0.12467     -2.15244         0.512277     -0.427101      0.430395
O	      6.45739      2.01625     -2.06438         0.027782     -0.908377      0.353573
