# total energy = -103.26848412 eV
 
CRYSTAL
PRIMVEC
2.117495 4.239525 2.117228 
4.296115 -4.286537 0.032246 
4.263823 -0.000085 -4.263156 
PRIMCOORD
16 1
Li	      0.19035     -0.01748     -0.04495        -0.336086     -0.057525     -0.021020
Li	      2.19309      2.17110     -0.00836         0.219621      0.006373      0.007757
Li	      2.17594      0.00695     -2.15278         0.102916     -0.015637     -0.106416
Li	      4.42904      2.05975     -2.20739        -0.091457      0.127157      0.096406
Ti	      4.32917     -2.10604     -2.03777        -0.528193     -0.401913     -0.338543
Ti	      6.61405     -0.02878     -2.24824         0.710250      0.273749      0.427715
Ni	      2.30851     -2.10611     -0.01807        -0.769616     -0.631434      0.178797
Ni	      4.37035     -0.02844     -0.00497         0.374934      0.312884     -0.106429
O	      4.34404     -2.19296     -0.08529         0.439448      0.600225     -0.830634
O	      6.53955      0.06823     -0.08411        -0.440387      0.584826     -0.707186
O	      2.20749     -0.02662      0.10561         0.647835      0.119917      0.541287
O	      4.45181      2.13557      0.02160         1.137215     -0.439403     -0.080435
O	      6.45040     -2.09388     -2.15470        -0.565275      1.088113      0.124312
O	      8.60901     -0.03102     -2.19040        -1.599877      0.108303     -0.208905
O	      4.45018     -0.12590     -2.17370         0.648483     -0.536864      0.586232
O	      6.52116      2.03616     -2.08477         0.050188     -1.138769      0.437064
