# total energy = -102.96520799 eV
 
CRYSTAL
PRIMVEC
2.127875 4.260307 2.127606 
4.317175 -4.307549 0.032404 
4.284724 -0.000085 -4.284054 
PRIMCOORD
16 1
Li	      0.24482     -0.01789     -0.05580        -0.432793     -0.070735     -0.034524
Li	      2.21464      2.19243     -0.00845         0.263541      0.013686      0.017394
Li	      2.19732      0.00701     -2.17393         0.128295     -0.020125     -0.132507
Li	      4.49374      2.05888     -2.22893        -0.110135      0.155093      0.115967
Ti	      4.38215     -2.10585     -2.04737        -0.597405     -0.470696     -0.427593
Ti	      6.67906     -0.02907     -2.27033         0.825051      0.329080      0.518837
Ni	      2.36263     -2.10592     -0.02882        -0.938856     -0.753904      0.216805
Ni	      4.41330     -0.02872     -0.00502         0.464667      0.383460     -0.111862
O	      4.38673     -2.21451     -0.08612         0.533045      0.753694     -0.975873
O	      6.60382      0.06889     -0.08493        -0.546590      0.668588     -0.842515
O	      2.22918     -0.02688      0.10664         0.836005      0.117460      0.636997
O	      4.49556      2.15656      0.02181         1.325898     -0.541752     -0.070184
O	      6.51380     -2.11446     -2.17588        -0.689599      1.290029      0.129111
O	      8.69362     -0.03132     -2.21193        -1.895611      0.141620     -0.282876
O	      4.49392     -0.12714     -2.19506         0.765262     -0.648919      0.733733
O	      6.58525      2.05617     -2.10525         0.069226     -1.346578      0.509090
