# total energy = -102.60443974 eV
 
CRYSTAL
PRIMVEC
2.138255 4.281089 2.137985 
4.338234 -4.328561 0.032562 
4.305625 -0.000086 -4.304952 
PRIMCOORD
16 1
Li	      0.29981     -0.01829     -0.06676        -0.543835     -0.083548     -0.046560
Li	      2.23630      2.21388     -0.00853         0.308282      0.020806      0.029583
Li	      2.21881      0.00708     -2.19520         0.155809     -0.025471     -0.157794
Li	      4.55885      2.05790     -2.25056        -0.132327      0.179833      0.133567
Ti	      4.43544     -2.10557     -2.05697        -0.655741     -0.528433     -0.511293
Ti	      6.74437     -0.02935     -2.29254         0.924911      0.380217      0.595138
Ni	      2.41717     -2.10563     -0.03968        -1.103861     -0.864260      0.248090
Ni	      4.45647     -0.02900     -0.00507         0.554480      0.454444     -0.106350
O	      4.42963     -2.23617     -0.08697         0.635907      0.892068     -1.115446
O	      6.66841      0.06957     -0.08576        -0.643926      0.743894     -0.966492
O	      2.25098     -0.02714      0.10769         1.027401      0.113982      0.737463
O	      4.53953      2.17765      0.02202         1.496434     -0.631985     -0.055135
O	      6.57750     -2.13514     -2.19716        -0.806863      1.474302      0.131267
O	      8.77864     -0.03163     -2.23356        -2.166007      0.167743     -0.357628
O	      4.53787     -0.12838     -2.21653         0.872601     -0.758689      0.870257
O	      6.64965      2.07628     -2.12584         0.076735     -1.534903      0.571334
