# total energy = -101.21639059 eV
 
CRYSTAL
PRIMVEC
2.169394 4.343435 2.169121 
4.401412 -4.391599 0.033036 
4.368329 -0.000087 -4.367645 
PRIMCOORD
16 1
Li	      0.46791     -0.01953     -0.10025        -0.969751     -0.122613     -0.105612
Li	      2.30191      2.27883     -0.00878         0.426748      0.049503      0.074288
Li	      2.28391      0.00729     -2.25960         0.237005     -0.039171     -0.228207
Li	      4.75669      2.05432     -2.31611        -0.184860      0.244805      0.173958
Ti	      4.59716     -2.10409     -2.08573        -0.775683     -0.650975     -0.733090
Ti	      6.94224     -0.03021     -2.35980         1.145335      0.503424      0.746565
Ni	      2.58330     -2.10416     -0.07285        -1.563921     -1.112785      0.317863
Ni	      4.58721     -0.02985     -0.00522         0.801370      0.642571     -0.066690
O	      4.55959     -2.30177     -0.08952         0.949756      1.271268     -1.473593
O	      6.86404      0.07161     -0.08828        -0.893427      0.894877     -1.278650
O	      2.31702     -0.02794      0.11085         1.680032      0.091358      1.057794
O	      4.67271      2.24154      0.02267         1.922486     -0.845214      0.005434
O	      6.77048     -2.19778     -2.26162        -1.128047      1.953269      0.142036
O	      9.03619     -0.03256     -2.29909        -2.854011      0.208085     -0.573009
O	      4.67100     -0.13215     -2.28156         1.135062     -1.086153      1.230964
O	      6.84474      2.13720     -2.18821         0.071908     -2.002250      0.709949
