# total energy = -90.40443990 eV
 
CRYSTAL
PRIMVEC
0.000001 2.098437 2.098583 
3.935362 -0.000010 0.000013 
-0.000028 8.410469 -8.411057 
PRIMCOORD
16 1
Li	      1.96974      2.09919      0.00045         0.001249      0.001914     -0.001785
Li	      1.96961      4.25542     -2.15347         0.000680     -0.037501      0.033454
Li	      1.96950      6.30568     -4.20666         0.001339      0.023322     -0.023276
Li	      1.96954      8.35451     -6.25760         0.002807      0.006985     -0.004919
Mn	      0.00190     10.47853     -6.28261         0.000327     -0.052160      0.055009
Mn	      0.00196      2.13184     -2.12921         0.000430      0.049447     -0.051349
Ni	      0.00182      4.25200     -4.25061        -0.000401     -0.047542      0.047872
Ni	      0.00194      6.26021     -6.26015        -0.003972      0.048761     -0.048153
O	      1.96945      8.42097     -4.22498         0.001154     -0.005848      0.007882
O	      0.00188      8.46940     -6.37285         0.000201      0.090139     -0.090241
O	      1.96947      4.18926     -4.18684        -0.000363      0.006710     -0.007716
O	      0.00177      6.30538     -4.20610        -0.001100      0.001129     -0.001938
O	      1.96962      2.08740     -2.08491        -0.000929     -0.049855      0.048004
O	      0.00195      4.14095     -2.03935        -0.000351     -0.091860      0.093432
O	      1.96960      2.11216      2.08452         0.000331      0.054634     -0.053316
O	      0.00198      2.09986      0.00005        -0.001402      0.001724     -0.002959
