# total energy = -88.79684222 eV
 
CRYSTAL
PRIMVEC
3.977356 -2.042804 -2.078404 
-0.066253 4.159397 -4.347002 
1.964215 4.030327 2.084762 
PRIMCOORD
13 1
Li	      3.89098      3.98656     -4.17562        -0.034561     -0.115835      0.078061
Mn	      5.81868      6.06523     -4.28986         0.011904      0.077746      0.070497
Mn	      2.07668      0.12424     -2.27596        -0.083401     -0.016485     -0.117146
Mn	      1.97478      2.03525     -0.04116         0.023561      0.075820     -0.054956
Mn	      1.91400      4.06987     -2.17693         0.031957     -0.001209      0.018322
O	      1.98647      2.01680     -1.92184         0.005262     -0.098345      0.077325
O	      1.81880      6.20675     -2.47440         0.000474      0.111027     -0.066359
O	      3.77573      4.18566     -1.99944        -0.020153      0.023001      0.126876
O	      4.03528      2.04331     -4.55087        -0.038579     -0.044040     -0.125581
O	      1.85832      4.27779     -4.41127        -0.006287      0.080192     -0.024921
O	      2.08846      3.94672      0.00062         0.028568     -0.117109      0.046587
O	      3.97560      2.19427     -0.05840         0.004821      0.059479     -0.036599
O	      3.96886     -0.18911     -2.02724         0.076433     -0.034240      0.007894
