# total energy = -95.18039764 eV
 
CRYSTAL
PRIMVEC
4.109927 -2.054020 -2.277878 
0.031212 4.039382 -4.440413 
1.989806 4.046724 2.203046 
PRIMCOORD
14 1
Li	      5.89752      3.96997     -2.24408        -0.007548     -0.019730      0.070616
Li	      2.29490      2.04301     -4.51816         0.007316      0.019828     -0.069929
Mn	      6.05187      5.94801     -4.54745         0.033560      0.009678     -0.002016
Mn	      2.14056      0.06513     -2.21442        -0.033189     -0.009699      0.001589
Mn	      2.02563      2.01393     -0.02182         0.000162     -0.000358      0.000478
Mn	      2.04122      4.03354     -2.24204         0.000498     -0.000251      0.000262
O	      2.01448      2.04200     -1.95893         0.025038     -0.074059      0.015126
O	      2.06805      6.02511     -2.52506        -0.024884      0.075190     -0.015255
O	      3.93066      4.20625     -1.86710        -0.031361      0.025983      0.131365
O	      4.26165      1.80676     -4.89477         0.032079     -0.024805     -0.132035
O	      1.96714      4.10478     -4.58314        -0.001662     -0.051866     -0.027200
O	      2.11538      3.96248      0.09911         0.000350      0.050754      0.027403
O	      4.13712      2.19502      0.05522         0.117270      0.019359      0.034684
O	      4.02412     -0.22122     -2.37669        -0.117628     -0.020024     -0.035087
