# total energy = -94.86796736 eV
 
CRYSTAL
PRIMVEC
4.164695 -2.002979 -2.122571 
0.080180 4.167961 -4.249009 
2.096099 4.115727 2.036924 
PRIMCOORD
14 1
Li	      4.27897      4.15622     -4.22511         0.035669      0.014625      0.056614
Li	      2.36678      2.05209     -4.16194         0.027953     -0.047597      0.034977
Mn	      6.27502      6.23867     -4.34558        -0.018818     -0.014249     -0.020095
Mn	      2.16391      0.05973     -2.19951        -0.066755     -0.000363     -0.064171
Mn	      2.05684      2.06495     -0.11241         0.021655      0.088928      0.021855
Mn	      2.08177      4.17702     -2.12700         0.096764      0.027005      0.042953
O	      2.14936      2.01596     -2.01101        -0.017538     -0.116140     -0.078500
O	      2.10204      6.27792     -2.44079        -0.049158      0.088475      0.011520
O	      3.97206      4.27951     -2.00786        -0.021325     -0.042254      0.022776
O	      4.36311      2.16830     -4.52229        -0.053853      0.009478      0.021783
O	      2.07373      4.25939     -4.33374        -0.011571      0.003107     -0.087790
O	      2.25716      3.98795     -0.04214         0.003606     -0.032383      0.054621
O	      4.30575      2.21012      0.00710         0.088871      0.047787      0.006299
O	      4.04576     -0.14163     -2.13552        -0.035500     -0.026418     -0.022843
