# total energy = -94.92864066 eV
 
CRYSTAL
PRIMVEC
4.150873 -1.959654 -2.156359 
0.086433 4.125758 -4.347450 
2.107786 4.065428 2.072857 
PRIMCOORD
14 1
Li	      4.22440      4.06691     -4.36719         0.016309     -0.016237      0.000505
Li	      4.05446      0.23635     -4.26366        -0.076046      0.001476      0.023540
Mn	      6.30564      6.19138     -4.42214        -0.018680      0.021917      0.017658
Mn	      2.15489      0.09603     -2.20767         0.002244     -0.008080     -0.027829
Mn	      2.11556      2.08931     -0.02830         0.012146      0.018999     -0.018665
Mn	      2.21369      4.06218     -2.26501         0.013603      0.000230     -0.000410
O	      2.03740      2.05817     -1.93027        -0.011587      0.000292      0.047746
O	      2.05032      6.20239     -2.43623         0.017676      0.006345     -0.012993
O	      4.08716      4.19343     -2.00089        -0.001404     -0.006083      0.099562
O	      4.46152      2.11170     -4.64741         0.014864     -0.027127     -0.125516
O	      2.13612      4.28582     -4.45268        -0.061126      0.023331     -0.059783
O	      2.28139      4.02769      0.00698         0.078751      0.010166      0.053872
O	      4.32129      2.23930     -0.04495         0.061551      0.048398      0.003044
O	      4.04982     -0.07454     -2.20197        -0.048302     -0.073627     -0.000731
