# total energy = -94.86812213 eV
 
CRYSTAL
PRIMVEC
4.164837 -2.003388 -2.122371 
0.080136 4.168344 -4.248244 
2.095981 4.116234 2.036701 
PRIMCOORD
14 1
Li	      4.16285      2.16351     -2.23222        -0.036327     -0.015732     -0.056317
Li	      6.07541      4.26717     -2.29461        -0.027593      0.048461     -0.034778
Mn	      6.27794      6.26014     -4.25613         0.068285      0.001001      0.064461
Mn	      2.16729      0.08062     -2.11062         0.017991      0.013949      0.020309
Mn	      2.14047      2.08965      0.02771        -0.021946     -0.089727     -0.022617
Mn	      2.19546      4.14558     -2.20629        -0.096456     -0.026942     -0.043877
O	      2.17543      2.04437     -1.89292         0.050222     -0.089459     -0.011576
O	      2.12783      6.30723     -2.32203         0.018945      0.117530      0.077594
O	      4.07884      4.15135     -1.93413         0.053287     -0.008808     -0.021562
O	      4.47001      2.03955     -4.44748         0.020814      0.043627     -0.022688
O	      2.02012      4.33489     -4.29069        -0.002865      0.030568     -0.052606
O	      2.20366      4.06328     -0.00029         0.009693     -0.003604      0.087951
O	      4.31608      2.29344     -0.07177         0.034940      0.026500      0.021236
O	      4.05629     -0.05906     -2.21442        -0.088989     -0.047363     -0.005529
