# total energy = -94.86967024 eV
 
CRYSTAL
PRIMVEC
4.333211 -2.012475 -2.045749 
0.115592 4.349747 -4.171035 
2.148817 4.174309 1.867320 
PRIMCOORD
14 1
Li	      4.18529      2.13560     -2.38708         0.027179      0.005682     -0.022058
Li	      4.60685      4.45499     -4.02633        -0.028450     -0.006026      0.021879
Mn	      4.37938      2.35427     -6.14552        -0.012781      0.018187      0.005080
Mn	      4.41238      4.23667     -0.26856         0.013388     -0.018116     -0.005146
Mn	      2.17140      2.12679     -0.09864         0.000240      0.000617     -0.000071
Mn	      2.22924      4.30161     -2.18416         0.000029     -0.000023     -0.000579
O	      2.28424      1.98051     -1.98226        -0.031815     -0.089824      0.037372
O	      2.17433      6.62297     -2.38605         0.031347      0.088376     -0.036744
O	      4.11733      4.19215     -2.11356        -0.012540     -0.033855      0.099347
O	      4.67439      2.39875     -4.30044         0.012179      0.032843     -0.099433
O	      2.11247      4.54941     -4.20335        -0.041228     -0.101922     -0.023384
O	      2.34603      4.05391     -0.16497         0.041033      0.102121      0.023874
O	      4.51865      2.28560     -0.20464         0.090469      0.073977      0.001628
O	      4.15753     -0.04448     -2.03851        -0.089050     -0.072036     -0.001766
