# total energy = -100.23559358 eV
 
CRYSTAL
PRIMVEC
4.125834 -2.098370 -2.141372 
-0.000514 4.226071 -4.312317 
2.040728 4.182275 2.111782 
PRIMCOORD
15 1
Li	      4.13437      4.16882     -4.34391        -0.014852      0.013284     -0.004726
Li	      4.03708      0.13056     -4.21380        -0.039088     -0.054742      0.015426
Li	      4.18851      6.23155     -2.21510         0.045989      0.064730      0.018134
Mn	      6.08803      6.25272     -4.35782        -0.028808     -0.001255     -0.050896
Mn	      2.12147      0.05037     -2.17814        -0.071268      0.024075     -0.003874
Mn	      2.09108      2.11497     -0.04699        -0.000222      0.034691      0.016050
Mn	      2.04994      4.20231     -2.16926         0.063871      0.048594      0.020599
O	      1.97914      2.23138     -1.96208         0.000309      0.038471     -0.031741
O	      2.04073      6.32677     -2.38121        -0.017598     -0.004546      0.011822
O	      3.97330      4.32355     -1.96415         0.017739      0.035229     -0.017211
O	      4.24319      2.09429     -4.58443        -0.052908     -0.021808     -0.012989
O	      2.01448      4.36137     -4.43878        -0.015892     -0.072855     -0.024229
O	      2.16917      4.06799      0.07486        -0.012361      0.019049      0.062465
O	      4.20654      2.02898      0.08705         0.085178     -0.057126     -0.001663
O	      4.02591     -0.23636     -2.20573         0.039912     -0.065789      0.002832
