# total energy = -100.13523869 eV
 
CRYSTAL
PRIMVEC
4.164915 -2.058172 -2.106268 
0.036898 4.245021 -4.264782 
2.096600 4.188349 2.060024 
PRIMCOORD
15 1
Li	      4.19500      2.25012     -2.16074        -0.001684      0.043815     -0.021618
Li	      4.26091      4.24781     -4.26260         0.023058     -0.003212      0.031341
Li	      4.31235      6.19807     -2.21201         0.009202     -0.015464      0.017511
Mn	      6.22970      6.32374     -4.27208        -0.055049      0.042353      0.020793
Mn	      2.11227      0.08323     -2.16305         0.000983     -0.050023     -0.014175
Mn	      2.08481      2.10670     -0.06517         0.008285      0.024638     -0.061335
Mn	      2.07642      4.24263     -2.13957         0.000928      0.016678     -0.021536
O	      2.19867      2.22158     -1.99802         0.036340      0.015267      0.014388
O	      2.13901      6.35910     -2.40197        -0.006992     -0.021420     -0.018900
O	      3.98848      4.26755     -2.00861        -0.069088     -0.011349      0.028553
O	      4.31714      2.21580     -4.42482        -0.001781      0.061756     -0.024757
O	      2.02235      4.38066     -4.38336        -0.041004     -0.028026     -0.078567
O	      2.13878      4.04172      0.05276         0.024852     -0.019743      0.066153
O	      4.29688      2.05617     -0.00746         0.043383      0.008622     -0.009085
O	      4.04348     -0.17409     -2.10596         0.028567     -0.063890      0.071234
