# total energy = -89.55769839 eV
 
CRYSTAL
PRIMVEC
2.021038 4.223720 2.067333 
4.090794 -2.089321 -2.156389 
0.102021 4.147421 -4.076619 
PRIMCOORD
13 1
Li	      4.18964      4.17055     -4.11801        -0.005982     -0.048977      0.038243
Mn	      4.09192      2.10360     -6.13347         0.012959     -0.021976      0.004460
Mn	      2.05654      2.11398      0.01193        -0.007583     -0.072351      0.036420
Mn	      4.02601      2.06874     -2.19821        -0.030373     -0.008883     -0.002785
Mn	      2.16701      4.26132     -1.98916         0.092887     -0.020170     -0.046978
O	      2.16637      2.27941     -1.93512         0.001754      0.070517     -0.019807
O	      3.98674      3.95727     -2.15333        -0.116619     -0.048125     -0.000549
O	      1.96786      4.34043     -3.91850        -0.017277      0.083019      0.127108
O	      4.08887      1.97599     -0.25232        -0.018263      0.034874     -0.143868
O	      4.26494      0.07158     -2.16503         0.068386      0.028114      0.049493
O	      1.94045      4.04120      0.02154        -0.051738      0.031873     -0.083331
O	      4.29603      2.20362     -4.14572         0.077133     -0.017486      0.115396
O	      2.18931      6.21481     -2.18852        -0.005284     -0.010429     -0.073802
