# total energy = -89.57297690 eV
 
CRYSTAL
PRIMVEC
1.993488 4.004418 2.174077 
4.014457 -2.028530 -2.146355 
-0.035713 3.987245 -4.280928 
PRIMCOORD
13 1
Li	      5.88517      3.97307     -2.07243         0.008600     -0.034942      0.111080
Mn	      3.81346      2.00962     -6.21812         0.011020     -0.039715      0.011867
Mn	      2.07014      2.00111      0.06325        -0.004819     -0.031547     -0.000490
Mn	      3.92305      1.96039     -2.19405         0.048976      0.050148     -0.032891
Mn	      2.03079      4.06897     -2.08705         0.031295     -0.034096      0.000691
O	      2.05171      2.10715     -1.92994         0.078747      0.066395      0.032213
O	      3.89294      3.81720     -2.17904        -0.118016     -0.081800     -0.037885
O	      1.78624      4.11802     -3.98884        -0.006422      0.031075      0.083009
O	      3.98179      1.92096     -0.25592        -0.007779      0.042379     -0.083508
O	      4.17021     -0.05470     -2.24519         0.000277      0.094614      0.036012
O	      1.88000      3.96280     -0.08893        -0.052553     -0.030609     -0.099285
O	      4.11869      1.90555     -4.14596         0.027462      0.002902      0.094083
O	      2.10180      6.03616     -2.30612        -0.016789     -0.034804     -0.114898
