# total energy = -89.57647594 eV
 
CRYSTAL
PRIMVEC
2.048674 3.889886 2.343622 
4.017210 -2.018386 -2.120700 
-0.172109 3.808490 -4.356026 
PRIMCOORD
13 1
Li	      4.01414      3.99133     -0.18175         0.013591      0.026007     -0.107273
Mn	      3.62027      1.69670     -6.08467         0.064349      0.004513      0.013048
Mn	      2.03912      1.87103      0.13350        -0.042501     -0.008861      0.048090
Mn	      4.01153      1.89712     -2.08873        -0.027930      0.090264     -0.048910
Mn	      1.92228      3.85702     -2.06097         0.019475     -0.023047      0.014151
O	      2.12188      1.89123     -1.83881         0.015644      0.024875      0.009689
O	      3.81249      3.74728     -2.11325        -0.019309     -0.059153     -0.013384
O	      1.63246      3.81412     -3.95445         0.010195      0.076555      0.088456
O	      4.02666      1.99824     -0.10961        -0.034460     -0.002743      0.000881
O	      4.14255     -0.14366     -2.03381         0.061179      0.041206      0.053892
O	      1.93493      3.80972     -0.08424        -0.031766     -0.077324     -0.074921
O	      4.06356      1.77164     -4.00357        -0.000491     -0.043970      0.099460
O	      1.98487      5.77361     -2.33457        -0.027975     -0.048323     -0.083179
