# total energy = -95.32450569 eV
 
CRYSTAL
PRIMVEC
2.238952 4.170704 2.198519 
4.154356 -1.992217 -2.059229 
0.020528 4.038901 -4.139313 
PRIMCOORD
14 1
Li	      4.31229      5.93159     -1.71667        -0.001349     -0.014792      0.051186
Li	      4.23353      4.13526     -4.05815         0.023813     -0.004341     -0.039534
Mn	      4.04194     -1.89649     -2.02268        -0.007513     -0.011196      0.019562
Mn	      2.20672      2.07556      0.03348        -0.045884     -0.047476      0.024493
Mn	      4.23158      2.11033     -2.05325        -0.035394     -0.016431     -0.007910
Mn	      2.18205      4.16335     -2.00747        -0.003890      0.027597     -0.067951
O	      2.30879      2.19342     -1.94393         0.028296      0.057622      0.056235
O	      4.04949      4.03860     -2.06276        -0.035292     -0.053274     -0.043352
O	      2.07865      4.20382     -3.92455         0.055052      0.098162      0.109060
O	      4.18135      2.06782     -0.10320        -0.102182     -0.040153     -0.046112
O	      4.44456      0.15664     -2.00211         0.082292      0.102902      0.003814
O	      2.03188      4.02778     -0.00900        -0.052516     -0.018130     -0.097156
O	      4.35788      2.15817     -4.00755         0.050185      0.021204      0.109229
O	      2.28489      6.12018     -2.19075         0.044383     -0.101694     -0.071566
