# total energy = -95.38910731 eV
 
CRYSTAL
PRIMVEC
2.191383 4.114979 2.278253 
4.110581 -2.030005 -2.053649 
-0.084257 4.001281 -4.224431 
PRIMCOORD
14 1
Li	      4.23927      4.23295     -0.10834        -0.003246      0.028025     -0.067820
Li	      4.08111      4.03383     -4.02858        -0.033572     -0.013013     -0.029553
Mn	      3.89140      1.89674     -5.99842        -0.036060     -0.014338      0.051280
Mn	      2.12706      2.03257      0.11625         0.033317     -0.076025      0.071740
Mn	      4.15227      2.02936     -2.02005        -0.032257      0.009668      0.118857
Mn	      2.09673      4.08467     -2.00827         0.072668      0.026204     -0.084472
O	      2.24342      2.05652     -1.85117         0.039419      0.040549      0.079232
O	      3.98098      3.93066     -2.03179        -0.043213     -0.035801     -0.041029
O	      1.96732      4.14661     -3.93620         0.022827      0.076017      0.077910
O	      4.12051      2.09970     -0.05513        -0.045384     -0.012025     -0.141938
O	      4.29465      0.04685     -1.92065         0.008554      0.091858      0.056021
O	      2.01720      3.97471      0.00108        -0.015680      0.006423     -0.076138
O	      4.29564      2.03395     -3.94962         0.046965      0.006063      0.092475
O	      2.06328      6.03121     -2.19918        -0.014338     -0.133604     -0.106565
