# total energy = -94.87720686 eV
 
CRYSTAL
PRIMVEC
2.055197 4.179546 2.044911 
4.071433 -2.075887 -2.028589 
-0.027580 4.242643 -4.193266 
PRIMCOORD
14 1
Li	      2.07065      0.04755     -2.01971        -0.019957      0.018674     -0.014625
Li	      5.97615      4.27844     -2.12245         0.008713     -0.016202     -0.033391
Mn	      3.89915      2.16215     -6.04852        -0.001644      0.010553     -0.057294
Mn	      2.04346      2.08627      0.05306        -0.004286      0.010009      0.037333
Mn	      4.03901      2.11896     -2.10808        -0.026699      0.025605      0.027050
Mn	      2.13215      4.25522     -2.14201        -0.003335     -0.032369      0.053729
O	      2.14419      2.18664     -1.92941         0.100702      0.013733      0.079221
O	      4.00140      4.01580     -2.03678         0.023729     -0.106567     -0.031048
O	      1.82103      4.45905     -4.15600        -0.020507      0.121149     -0.068964
O	      4.02384      2.18181     -0.16018        -0.059519      0.003309     -0.040569
O	      4.18470      0.12612     -2.13575         0.070828      0.089779      0.019070
O	      1.95171      4.10696      0.04390        -0.099865     -0.063628      0.042749
O	      4.25722      2.04537     -4.07669         0.047510     -0.030876      0.062077
O	      2.11020      6.25499     -2.25809        -0.015671     -0.043169     -0.075338
