# total energy = -100.18082271 eV
 
CRYSTAL
PRIMVEC
2.025759 4.208119 2.177109 
4.072969 -2.084526 -2.235821 
0.062064 4.171324 -4.348202 
PRIMCOORD
15 1
Li	      4.05911      0.00679     -4.30126         0.008268      0.044978      0.005380
Li	      4.15210      6.20334     -2.35183         0.058853     -0.061271     -0.059134
Li	      4.04825      4.15961     -4.41698         0.020409     -0.015161     -0.011143
Mn	      4.05905      2.13645     -6.53476         0.003647     -0.026481      0.046736
Mn	      2.09203      2.11094      0.02586        -0.051924     -0.009708      0.038708
Mn	      4.04182      2.09829     -2.21528        -0.020094     -0.015700     -0.000964
Mn	      2.12551      4.23150     -2.17133        -0.015157      0.008008      0.033673
O	      2.10445      2.27423     -1.95681         0.080601      0.077038      0.089575
O	      4.03560      4.03645     -2.32673        -0.105087     -0.046216     -0.084608
O	      1.94971      4.37153     -4.33134         0.056589      0.158423      0.030880
O	      4.05046      1.99881     -0.02893        -0.086741     -0.101841      0.044240
O	      4.24723      0.12905     -2.27310         0.008571      0.040552      0.020524
O	      1.92925      4.11771      0.15373        -0.086995     -0.089858      0.025348
O	      4.17414      2.09432     -4.53654         0.072072      0.003112     -0.074077
O	      2.16570      6.19584     -2.36990         0.056987      0.034125     -0.105140
