# total energy = -88.89108763 eV
 
CRYSTAL
PRIMVEC
2.233067 3.903136 2.079618 
4.295164 -1.893709 -2.014380 
0.011235 3.854375 -4.078380 
PRIMCOORD
13 1
Li	      4.60649      3.84837     -4.03611         0.018485     -0.019720      0.003476
Mn	      4.23552     -1.82799     -1.98477         0.050593     -0.032105      0.012030
Mn	      2.23525      1.93526     -0.03443        -0.052992     -0.011145     -0.032478
Mn	      4.32922      2.06600     -2.02462        -0.034474      0.079777     -0.042638
Mn	      4.25921      5.74433     -1.83135         0.002472     -0.013068      0.037245
O	      2.46416      1.86706     -1.90816         0.056113      0.063415      0.078065
O	      4.41048      3.89680     -2.18041        -0.023605     -0.075434      0.002944
O	      1.82789      3.82514     -3.91527        -0.088831      0.078256     -0.065506
O	      4.29539      1.97386     -0.07015         0.065441     -0.056769     -0.092641
O	      4.62470      0.08279     -2.00798         0.022510     -0.020470      0.013866
O	      2.03036      3.84411      0.16806        -0.010944     -0.086039      0.026467
O	      3.94686      2.05239     -4.11176         0.018003      0.016212      0.060073
O	      2.30769      5.90751     -2.14498        -0.022770      0.077088     -0.000902
