# total energy = -88.88829682 eV
 
CRYSTAL
PRIMVEC
2.204962 3.911991 2.085789 
4.267315 -1.916642 -2.011916 
-0.005606 3.867953 -4.078122 
PRIMCOORD
13 1
Li	      4.13615      3.95865      0.05159        -0.094407      0.041641     -0.010882
Mn	      4.21142      1.97499     -6.04097         0.077319     -0.009469      0.017677
Mn	      2.21787      1.90044     -0.00861        -0.085264      0.018171     -0.005130
Mn	      4.42794      2.07880     -2.17157        -0.024593     -0.005853      0.035147
Mn	      4.33141      5.75992     -1.94795         0.057168     -0.104199     -0.037274
O	      2.50095      1.86455     -1.98146         0.017769     -0.019947      0.034007
O	      4.19558      3.92440     -1.82990         0.092708      0.097330      0.004133
O	      1.85055      3.85418     -4.07018        -0.077618      0.007088     -0.018700
O	      4.36517      1.99825      0.16903        -0.018079      0.023836      0.052858
O	      4.60827      0.07509     -2.11257         0.094892     -0.084813      0.001938
O	      2.10012      3.82400      0.16128         0.003594     -0.066836      0.046674
O	      3.99502      1.98833     -4.16393        -0.067179      0.034596     -0.092717
O	      2.34056      5.89922     -2.14592         0.023689      0.068455     -0.027731
