# total energy = -94.62850946 eV
 
CRYSTAL
PRIMVEC
2.249120 4.009454 2.003585 
4.387737 -1.938787 -2.019002 
0.050401 4.018694 -4.078135 
PRIMCOORD
14 1
Li	      2.40175      4.11340     -1.90656         0.029998     -0.008559     -0.004423
Li	      4.54685      4.04576     -4.06802         0.038250      0.007901     -0.002789
Mn	      4.39221     -1.88021     -2.01744        -0.037868     -0.008661     -0.017564
Mn	      2.25094      1.94683     -0.08261        -0.015287      0.032565      0.033341
Mn	      4.42998      2.12729     -2.06554         0.020012     -0.047509      0.008994
Mn	      4.46369      5.96846     -2.01141        -0.017604      0.014773     -0.043333
O	      2.51225      2.06786     -1.98549         0.025829     -0.019601      0.044954
O	      4.32537      4.07551     -2.15787         0.052044     -0.000662     -0.010645
O	      2.03141      4.03734     -3.94376         0.039255      0.005263     -0.005559
O	      4.33260      1.98607     -0.04892        -0.062939     -0.000869     -0.031335
O	      4.71125      0.02198     -2.02125         0.040366      0.018946      0.028443
O	      1.99022      3.89722      0.04314        -0.050446     -0.004810     -0.015906
O	      4.15430      2.12692     -4.14192        -0.089166     -0.015411      0.067844
O	      2.44814      6.11754     -2.20559         0.027555      0.026633     -0.052021
