# total energy = -94.58263938 eV
 
CRYSTAL
PRIMVEC
2.223875 3.980191 2.029264 
4.346866 -1.932154 -2.040682 
0.048868 3.967358 -4.084846 
PRIMCOORD
14 1
Li	      6.49724      3.96249     -2.10469         0.020464     -0.006082     -0.018921
Li	      4.44327      3.96513     -4.09610         0.092682     -0.004887      0.003030
Mn	      4.30643     -1.87565     -2.00316        -0.019161     -0.004024     -0.005070
Mn	      2.23242      1.94811     -0.05464         0.048702      0.003229      0.048340
Mn	      4.34859      2.13506     -2.03440         0.009960     -0.002603     -0.026151
Mn	      4.37445      5.92541     -1.96200        -0.058251      0.014065     -0.086866
O	      2.44228      2.01421     -1.95827        -0.037201     -0.010600      0.053754
O	      4.53364      4.00401     -2.18906         0.011961     -0.026924      0.013935
O	      1.95728      3.99532     -4.04642         0.045419     -0.053378      0.003433
O	      4.31988      1.97070     -0.04456        -0.074145      0.044076     -0.069590
O	      4.61070      0.04936     -2.07414        -0.020984      0.014690     -0.035737
O	      1.96113      3.92378      0.15116        -0.012639      0.043681      0.056289
O	      4.08815      2.04526     -4.12006         0.017032     -0.002378      0.006529
O	      2.41006      6.07082     -2.12757        -0.023840     -0.008865      0.057023
