# total energy = -94.69800784 eV
 
CRYSTAL
PRIMVEC
2.300876 3.965995 1.987593 
4.422143 -1.862646 -2.039662 
0.111966 3.960055 -4.080718 
PRIMCOORD
14 1
Li	      6.55631      4.02477     -2.16309        -0.062675     -0.000486     -0.002097
Li	      2.51346      4.04785     -1.99052         0.056305     -0.017759      0.018658
Mn	      4.33391     -1.76614     -1.98664        -0.080819      0.051734      0.000529
Mn	      2.32986      1.91541     -0.07717         0.014715     -0.070796     -0.042016
Mn	      4.49095      2.12159     -2.06225         0.021953     -0.010119      0.039731
Mn	      4.58891      5.94668     -2.09264        -0.006939      0.005329     -0.069525
O	      2.56232      2.07380     -1.98119         0.074352      0.010998     -0.011308
O	      4.53245      4.04228     -2.08122        -0.016502     -0.023906     -0.009965
O	      1.99995      3.97502     -3.94039        -0.028458     -0.058130      0.042306
O	      4.54866      2.06800     -0.02628         0.155585      0.023629      0.038883
O	      4.72772      0.12488     -2.19878        -0.069827     -0.013431     -0.025283
O	      2.03274      3.91232      0.05407        -0.007389      0.022172     -0.010111
O	      4.21630      2.03651     -4.16139        -0.039309      0.009848     -0.008283
O	      2.62956      6.02167     -2.18110        -0.010993      0.070917      0.038482
