# total energy = -94.59058462 eV
 
CRYSTAL
PRIMVEC
2.246617 4.013908 2.000955 
4.391396 -1.946049 -2.017049 
0.051839 4.007723 -4.044120 
PRIMCOORD
14 1
Li	      2.34658      0.05943     -2.02321         0.039456     -0.006265      0.025343
Li	      2.35990      4.11068     -1.96699        -0.000755      0.025655      0.015589
Mn	      4.41599      2.09418     -6.01919        -0.019233      0.119170      0.091165
Mn	      2.15778      1.96597     -0.05571        -0.016956     -0.132730     -0.032649
Mn	      4.46526      2.12947     -2.10297        -0.053714     -0.109311      0.014460
Mn	      4.50393      5.93825     -2.05695         0.109297      0.001222     -0.020025
O	      2.52480      2.02495     -2.01131         0.040156      0.029217     -0.055522
O	      4.31732      4.06749     -1.91834        -0.046854      0.043652      0.039992
O	      1.97273      4.04723     -4.02010        -0.041241     -0.027260     -0.017425
O	      4.57763      2.10427      0.00709         0.136737     -0.029339      0.078359
O	      4.58188      0.00385     -2.05828        -0.147341      0.002629     -0.016938
O	      2.02294      3.88285      0.03918         0.002254      0.103743     -0.062205
O	      4.17787      2.03763     -4.10678        -0.037228     -0.000991     -0.084028
O	      2.54999      6.09738     -2.19270         0.035423     -0.019390      0.023885
