# total energy = -94.63957856 eV
 
CRYSTAL
PRIMVEC
2.258382 4.032279 1.978303 
4.423317 -1.951432 -2.008656 
0.062796 4.030564 -4.017237 
PRIMCOORD
14 1
Li	      2.30640      0.04967     -2.00951         0.004131     -0.010298      0.014675
Li	      6.53225      4.00154     -2.17900        -0.047661     -0.016520     -0.034759
Mn	      4.46077      2.14129     -5.96267         0.030478      0.013547      0.001265
Mn	      2.15525      1.97442     -0.01335        -0.028353      0.009794      0.011939
Mn	      4.45736      2.16659     -2.06694        -0.017708     -0.047314      0.050183
Mn	      4.51067      6.00668     -2.01407         0.003795      0.006537     -0.016268
O	      2.53327      2.00156     -1.98596         0.049670      0.013633     -0.023290
O	      4.59346      4.05916     -1.95237        -0.036752      0.000840     -0.039859
O	      1.95454      4.11328     -4.05845        -0.026489     -0.000783      0.012618
O	      4.58492      2.11997     -0.00344         0.129944      0.006483     -0.051054
O	      4.58861      0.02831     -2.14626        -0.081725     -0.031207      0.011954
O	      2.02289      3.92870      0.10578        -0.013269      0.029218      0.012633
O	      4.17765      2.02218     -4.04853         0.035863      0.011326     -0.018994
O	      2.57911      6.17980     -2.07761        -0.001923      0.014745      0.068957
