# total energy = -100.15622085 eV
 
CRYSTAL
PRIMVEC
2.245198 4.070580 2.022291 
4.427197 -1.985194 -2.056316 
0.052510 4.076297 -4.110441 
PRIMCOORD
15 1
Li	      2.41502      0.03699     -2.14801         0.045736      0.006245      0.033491
Li	      2.39779      4.15614     -1.98512         0.043819      0.007288     -0.014185
Li	      4.59759      4.10252     -4.04731         0.038912     -0.006604     -0.005928
Mn	      4.46091      2.13217     -6.13708         0.104573      0.006723     -0.031227
Mn	      2.14233      2.00713     -0.09173        -0.031437     -0.095670     -0.007101
Mn	      4.47171      2.10141     -2.11830        -0.007780     -0.016662      0.044416
Mn	      4.49520      6.07526     -2.06989        -0.129679      0.030466     -0.027255
O	      2.52676      2.05144     -2.02968         0.012385     -0.017197     -0.045784
O	      4.36110      4.11183     -2.09020         0.036316     -0.008984      0.052826
O	      1.98970      4.13483     -4.11249        -0.042453      0.047753     -0.001772
O	      4.64953      2.06262     -0.02508         0.006030      0.011709      0.001829
O	      4.47338     -0.00519     -1.94927        -0.017413      0.004773      0.025775
O	      2.00387      3.93043     -0.01135        -0.064751      0.025965     -0.125521
O	      4.20638      2.14158     -4.13524        -0.021826      0.017951      0.072280
O	      2.51462      6.19223     -2.24903         0.027568     -0.013754      0.028157
