# total energy = -92.41194361 eV
 
CRYSTAL
PRIMVEC
0.000268 2.060449 2.058401 
8.454722 -4.177840 4.173998 
2.116646 2.107076 -4.162506 
PRIMCOORD
16 1
Li	      2.10700      2.08417     -0.02788         0.012486     -0.013307      0.014769
Li	      4.45219     -0.11693      0.11067         0.018346     -0.001895      0.002840
Li	      6.35175     -0.01229      2.06807        -0.001094     -0.001491      0.000858
Li	      8.23940     -1.97992      1.97788        -0.016338      0.018270     -0.016490
Mn	     10.53791     -0.00871      2.06457        -0.054220      0.012040     -0.001916
Mn	      2.14525     -0.01896      2.07439         0.023846      0.001092     -0.002903
Ni	      6.39638      2.04148      0.01672        -0.023530      0.027096     -0.030412
Ni	      6.29091     -2.06641      4.12000         0.042464     -0.034286      0.036538
O	      2.22636      2.17887     -2.17805         0.034621      0.006575     -0.021757
O	      6.36456      0.02456     -0.02553        -0.110216     -0.112028      0.108759
O	      6.32289     -2.10951      2.10337         0.102768      0.109324     -0.105393
O	      8.68084     -0.01233      2.06969         0.123160     -0.088220      0.079833
O	      8.51575     -2.24167      4.29351         0.049987     -0.040796      0.048947
O	      2.00066     -0.09450      0.09037        -0.008815     -0.029829      0.040482
O	      4.17380      2.21730     -0.15716        -0.059826      0.064833     -0.075004
O	      4.00312     -0.01236      2.06679        -0.133640      0.082622     -0.079151
