# total energy = -89.56690650 eV
 
CRYSTAL
PRIMVEC
-0.000988 2.051766 2.053320 
8.211632 -2.103122 2.101383 
0.022175 4.251818 -4.253521 
PRIMCOORD
13 1
Li	      4.06196      0.01428     -0.01274         0.027746     -0.018179      0.017543
Mn	      0.04801      4.10204     -4.10191         0.020306      0.028862     -0.030527
Mn	      6.28875      0.07004      1.98189        -0.059238     -0.061777      0.061229
Mn	      1.93252      2.16675     -0.11177        -0.020608      0.004563     -0.003390
Mn	      4.14984      2.13639     -2.13675        -0.001737      0.005683     -0.003074
O	      4.37087      4.09927     -2.05050         0.002565      0.042525     -0.041613
O	      1.98896      0.19670     -0.19487        -0.021166      0.045957     -0.043518
O	      6.10428     -0.13548      0.13545        -0.037132     -0.045405      0.046647
O	      8.21722      2.23436     -0.18384         0.120397      0.049865     -0.051072
O	      3.89456      2.22651     -0.16946        -0.003271     -0.027061      0.023594
O	      1.99683      1.99952     -1.99650        -0.025013     -0.021993      0.024423
O	      6.33892      2.32366     -2.32637         0.034433     -0.026299      0.024474
O	      0.02435      1.89290      0.16206        -0.037283      0.023259     -0.024717
