# total energy = -89.86409176 eV
 
CRYSTAL
PRIMVEC
-0.000180 2.047596 2.047931 
8.226400 -2.257232 2.257514 
-0.008721 4.559387 -4.558675 
PRIMCOORD
13 1
Li	      6.20008      1.86384      0.18663        -0.005740      0.008598     -0.009157
Mn	      8.16039      2.29462     -2.29138         0.019850      0.082804     -0.083403
Mn	      6.13739     -0.01966      2.07004         0.003327     -0.094446      0.095032
Mn	      2.09435      2.15646     -0.10620        -0.015222      0.009723     -0.010757
Mn	      4.16895      2.30206     -2.29913        -0.030404     -0.001615      0.000673
O	      4.20433      4.25076     -2.19999         0.048325     -0.048768      0.050041
O	      1.81109      0.22609     -0.22378        -0.107095     -0.007403      0.008198
O	      6.13027     -0.18125      0.18396         0.023609      0.018363     -0.018216
O	      8.01327      2.48771     -0.43684        -0.055564      0.026686     -0.027853
O	      4.33147      2.44027     -0.38976         0.084543      0.008252     -0.008086
O	      2.31757      2.04744     -2.04481         0.128247     -0.025577      0.026927
O	      6.14776      2.55722     -2.55403        -0.000267      0.054242     -0.053412
O	      8.08977     -0.26262      2.31310        -0.093609     -0.030859      0.030012
