# total energy = -95.14215005 eV
 
CRYSTAL
PRIMVEC
-0.000183 2.031552 2.031929 
8.892744 -2.110103 2.110517 
-0.017455 4.171295 -4.170699 
PRIMCOORD
14 1
Li	      1.92071      4.06254     -2.02723        -0.010446      0.026158     -0.026188
Li	      4.73041      0.06731     -0.06430         0.009144     -0.024880      0.026351
Mn	      8.77849      2.02371     -2.02044         0.004554     -0.028985      0.028973
Mn	      6.76560     -0.00437      2.03883        -0.008021      0.028089     -0.027957
Mn	      2.05845      2.14819     -0.11325         0.081487     -0.038114      0.037376
Mn	      4.59307      1.98179     -1.97831        -0.081979      0.035337     -0.036046
O	      4.76574      3.95297     -1.91779         0.007137      0.008937     -0.007226
O	      1.88553      0.17679     -0.17407         0.000915     -0.009911      0.010065
O	      6.59794     -0.19270      0.19552         0.114389      0.000410      0.000894
O	      0.05335      4.32206     -2.28761        -0.110831      0.001969     -0.001036
O	      4.34018      2.08120     -0.04607        -0.004830     -0.067183      0.065016
O	      2.31196      2.04880     -2.04524        -0.003282      0.066991     -0.067597
O	      6.83341      2.17969     -2.17653         0.051870      0.041181     -0.041651
O	      8.71080     -0.16041      2.19498        -0.050107     -0.039999      0.039027
