# total energy = -95.17013983 eV
 
CRYSTAL
PRIMVEC
-0.000167 2.048665 2.048991 
8.333799 -2.172713 2.173052 
0.035824 4.422556 -4.421814 
PRIMCOORD
14 1
Li	      6.33579      1.90498      0.14730         0.070244     -0.010699      0.010670
Li	      2.03713      4.34110     -2.28695        -0.030483     -0.008288      0.007837
Mn	      8.29579      2.22121     -2.21754         0.044977     -0.033292      0.032846
Mn	      6.21945      0.03886      2.01270        -0.000938      0.022084     -0.022751
Mn	      2.14856      2.14267     -0.09117        -0.021533     -0.012594      0.013551
Mn	      4.27499      2.23214     -2.22888        -0.024691     -0.012160      0.012106
O	      4.26405      4.18474     -2.13253        -0.070521      0.008224     -0.008966
O	      1.97660      0.19534     -0.19292         0.054315     -0.009983      0.009837
O	      6.22982     -0.12542      0.12825        -0.022395     -0.030427      0.029830
O	      8.30796      2.36909     -0.31666         0.030441     -0.019520      0.019911
O	      4.37624      2.37069     -0.31871         0.050772      0.030370     -0.030373
O	      2.30591      2.08096     -2.07805         0.047900      0.025194     -0.023542
O	      6.22356      2.45781     -2.45449        -0.059201      0.029587     -0.028675
O	      8.15578     -0.20876      2.26054        -0.068889      0.021505     -0.022282
