# total energy = -95.07996992 eV
 
CRYSTAL
PRIMVEC
-0.000149 2.046670 2.047005 
8.477858 -2.098570 2.099067 
0.038583 4.291623 -4.290884 
PRIMCOORD
14 1
Li	      8.35887      0.19854     -0.19385        -0.150872      0.000958     -0.000447
Li	      2.28806      4.33304     -2.28079        -0.018682      0.056409     -0.057619
Mn	      8.39869      2.09794     -2.09413         0.052235     -0.027979      0.028037
Mn	      6.26997      0.07541      1.97440         0.063073      0.022784     -0.021713
Mn	      2.24841      2.06287     -0.01304         0.006258     -0.002015      0.000227
Mn	      4.35892      2.12808     -2.12466        -0.018946     -0.040776      0.039965
O	      4.32909      4.09875     -2.04831         0.071582     -0.034861      0.035263
O	      2.02721      0.13569     -0.13297         0.060822      0.012190     -0.012118
O	      6.44195     -0.12200      0.12514        -0.075355     -0.124971      0.124389
O	      0.14916      4.31834     -2.26817         0.051040      0.013626     -0.012659
O	      4.34621      2.28493     -0.23481         0.017389      0.126184     -0.125780
O	      2.33020      2.01307     -2.00984         0.062530     -0.022788      0.021660
O	      6.25855      2.37009     -2.36656        -0.037843      0.035246     -0.033263
O	      8.24948     -0.17399      2.22387        -0.083231     -0.014007      0.014058
