# total energy = -95.50807066 eV
 
CRYSTAL
PRIMVEC
-0.000164 2.044148 2.044468 
7.717333 -2.389361 2.389622 
-0.002849 4.813184 -4.812358 
PRIMCOORD
14 1
Li	      0.16997      2.73729     -2.73425        -0.014808      0.071425     -0.071798
Li	      5.61701      1.91144      0.13593         0.014599     -0.073483      0.072982
Mn	      0.04788      4.66184     -4.65849        -0.002920     -0.003409      0.004086
Mn	      5.73947     -0.01297      2.06012        -0.003581      0.001682     -0.001562
Mn	      2.06729      2.13441     -0.08718        -0.104725     -0.117434      0.117188
Mn	      3.71957      2.51467     -2.51137         0.108275      0.115747     -0.115859
O	      3.56751      4.39090     -2.34321        -0.066312     -0.129759      0.130576
O	      2.21960      0.25782     -0.25505         0.062080      0.133656     -0.133988
O	      5.96885     -0.12924      0.13235         0.038288      0.026789     -0.024819
O	      7.53507      2.38864     -0.34075        -0.035053     -0.022593      0.023652
O	      3.92166      2.58724     -0.53972         0.030626      0.016443     -0.017808
O	      1.86529      2.06173     -2.05860        -0.031761     -0.019470      0.017412
O	      5.62343      2.81103     -2.80763        -0.088398      0.002442     -0.002214
O	      0.16304      1.83788      0.20896         0.093690     -0.002037      0.002151
