# total energy = -100.31528719 eV
 
CRYSTAL
PRIMVEC
-0.000193 2.034999 2.035308 
8.790753 -2.077357 2.077613 
0.031501 4.213040 -4.212296 
PRIMCOORD
15 1
Li	      6.73255      1.99418      0.04469         0.039512      0.003118     -0.003264
Li	      2.08134      4.11758     -2.07744        -0.082934     -0.036396      0.034818
Li	      4.44795      0.02663     -0.02302         0.089521      0.000788     -0.000809
Mn	      8.79777      2.09412     -2.09055         0.008479      0.100429     -0.100551
Mn	      6.67245      0.09356      1.94448        -0.008138     -0.042462      0.042344
Mn	      2.10546      2.11701     -0.07916         0.034861     -0.007168      0.008019
Mn	      4.45820      2.11704     -2.11397         0.014221     -0.009202      0.008606
O	      4.42582      4.07534     -2.03699         0.012338      0.033841     -0.033627
O	      2.03429      0.11583     -0.11322        -0.163227     -0.052009      0.053084
O	      6.45936     -0.03870      0.04183         0.008752      0.056920     -0.057984
O	      8.79319      2.24547     -0.20680         0.020242      0.002822     -0.002425
O	      4.50751      2.19574     -0.15768        -0.064738     -0.086553      0.087618
O	      2.30460      2.01324     -2.01046        -0.076072      0.056280     -0.055270
O	      6.78734      2.27160     -2.26829         0.150611     -0.045224      0.044613
O	      8.78173     -0.18279      2.22087         0.016571      0.024815     -0.025171
