# total energy = -89.96733868 eV
 
CRYSTAL
PRIMVEC
1.906706 4.331999 1.882976 
6.011049 -0.089297 -1.989288 
-2.101128 4.528740 -2.092721 
PRIMCOORD
13 1
Li	      1.76548      4.42612     -1.97003         0.022706      0.007093     -0.003939
Mn	      3.84545      4.43309     -4.02797        -0.030018     -0.024643     -0.009927
Mn	      4.04515      2.18034     -2.13035        -0.043255     -0.001351      0.025543
Mn	      1.91478      2.17246     -0.02032         0.024759     -0.010354     -0.010967
Mn	      3.95362      4.35647     -0.16370         0.007658      0.015493      0.007483
O	      3.99246      6.32922     -0.08967         0.015580      0.021879      0.034935
O	      1.99233      4.09898     -0.05761         0.022569     -0.027463     -0.037241
O	     -0.11339      4.78357     -2.21859         0.054898      0.038863      0.003090
O	      3.86740      2.36135     -0.19085         0.018248      0.012136     -0.018359
O	      5.98260      1.82049     -2.00617        -0.016690      0.008822     -0.050557
O	      3.84710      4.10464     -2.06970        -0.019522     -0.040797      0.022122
O	     -0.16827      6.94315     -0.18491         0.026401     -0.032007     -0.000210
O	      5.86669      4.59625     -0.10116        -0.083335      0.032330      0.038026
