# total energy = -89.96113614 eV
 
CRYSTAL
PRIMVEC
1.914424 4.335987 2.000885 
5.930328 -0.071937 -2.035289 
-2.054014 4.453167 -2.110351 
PRIMCOORD
13 1
Li	      3.70879      6.56107     -2.01643        -0.003092     -0.017215      0.088126
Mn	      3.85163      4.38077     -4.06513         0.043189     -0.025359     -0.115802
Mn	      3.98277      2.16498     -2.17046        -0.106487      0.034978     -0.025479
Mn	      1.91130      2.18893     -0.00091        -0.007784      0.023981     -0.008551
Mn	      3.92396      4.34100     -0.11224         0.019589      0.105709      0.066719
O	      3.98882      6.25705     -0.14071         0.101319     -0.092671     -0.043411
O	      2.00433      4.14755      0.13776         0.035422      0.001560      0.043734
O	     -0.17280      4.66608     -2.28198        -0.061467     -0.035738     -0.043741
O	      3.85739      2.40707     -0.18422         0.036743     -0.011808     -0.014304
O	      5.90790      1.85344     -1.89019        -0.024056     -0.033704      0.016201
O	      3.91906      4.10051     -2.10322         0.000759     -0.041782     -0.026757
O	      5.76732      6.80876     -2.05954         0.001234      0.062393      0.100780
O	      5.87538      4.54813     -0.07915        -0.035370      0.029658     -0.037516
