# total energy = -90.36555986 eV
 
CRYSTAL
PRIMVEC
0.000033 2.093815 -2.093796 
0.000093 2.093818 2.093799 
15.870494 0.000539 0.000276 
PRIMCOORD
16 1
Li	      1.98353      2.09201      0.00024         0.003219     -0.000004     -0.000495
Li	      5.98600      2.09168     -0.00102        -0.055350     -0.000066      0.000494
Li	      9.91912      2.09292     -0.00101        -0.000569     -0.000168      0.000192
Li	     13.85205      2.09447      0.00024         0.052957     -0.001028     -0.000105
Mn	      0.00381      4.18696      0.00012         0.013610      0.000117     -0.000636
Mn	      3.96345      4.18579     -0.00041        -0.013664      0.001665      0.000368
Ni	      7.92364      4.18606     -0.00098         0.032551      0.001108      0.000538
Ni	     11.91463      2.09397      2.09342        -0.034908     -0.000894      0.000519
O	     14.01071      4.18799      0.00035         0.057904     -0.000556     -0.000487
O	      0.02917      2.09317      0.00010        -0.010002     -0.000050      0.000071
O	      9.91911      4.18689     -0.00080         0.000260      0.001146      0.000997
O	     11.92752      2.09392     -0.00037        -0.009892     -0.000764     -0.000929
O	      5.82699      4.18546     -0.00076        -0.056072      0.000138      0.000152
O	      7.91041      2.09229     -0.00100         0.010937     -0.001872     -0.000287
O	      1.98360      4.18636      0.00011         0.000309      0.001237     -0.000631
O	      3.93810      2.09202     -0.00038         0.008711     -0.000010      0.000237
