# total energy = -95.21321068 eV
 
CRYSTAL
PRIMVEC
1.934037 4.256329 1.934592 
6.156902 -0.088946 -2.113149 
-2.109929 4.435239 -2.110187 
PRIMCOORD
14 1
Li	      1.95314      6.44677     -0.21252        -0.029919      0.001516      0.001162
Li	      1.92076      4.32041     -2.11443         0.000226      0.000998     -0.028853
Mn	      3.98792      4.34978     -4.17198        -0.005576      0.000296     -0.024708
Mn	      4.11864      2.13177     -2.19301        -0.022131      0.001517     -0.005977
Mn	      1.95471      2.13844     -0.03042         0.006168     -0.024156     -0.034760
Mn	      4.03706      4.26627     -0.17844        -0.035759     -0.023594      0.004495
O	      3.96443      6.22262     -0.06652        -0.047254     -0.056897      0.087808
O	      2.06678      4.09464     -0.10344         0.085552     -0.056697     -0.048703
O	     -0.07187      4.61882     -2.26103         0.016389      0.068661     -0.055389
O	      3.91647      2.31157     -0.09487        -0.054489      0.067903      0.017147
O	      0.00621      1.91248     -0.11910         0.089076     -0.018364      0.015061
O	      3.94868      4.04067     -2.12696         0.015523     -0.018426      0.087274
O	     -0.08497      6.78665     -0.19937         0.051111      0.028712     -0.066406
O	      5.97826      4.47959     -0.10798        -0.068918      0.028530      0.051848
