# total energy = -95.46060939 eV
 
CRYSTAL
PRIMVEC
1.933069 4.272052 2.038826 
6.039523 -0.066379 -2.141351 
-2.058376 4.383757 -2.138338 
PRIMCOORD
14 1
Li	      3.88617      6.44355     -2.14363         0.007958     -0.021841      0.013137
Li	      1.80777      4.29614     -2.03507        -0.026648     -0.030709      0.033565
Mn	      3.96052      4.33106     -4.22283        -0.044199      0.025661     -0.001473
Mn	      4.06389      2.14565     -2.24137        -0.035012     -0.007201     -0.007913
Mn	      1.95000      2.15290     -0.01758         0.024070     -0.035725     -0.002529
Mn	      3.98570      4.26817     -0.15261         0.023560      0.030972     -0.034272
O	      4.07381      6.22385     -0.19178         0.065512     -0.055701     -0.029151
O	      2.06994      4.06377     -0.06649         0.110245     -0.010136     -0.005176
O	     -0.10431      4.60233     -2.35326         0.012458      0.042283     -0.052327
O	      3.95414      2.29924     -0.23040         0.020827      0.062395     -0.064020
O	      6.01094      1.87304     -2.01008        -0.062032     -0.041598      0.013941
O	      3.92476      4.08178     -2.10597        -0.007239     -0.054638      0.057637
O	      5.90095      6.69518     -2.12585        -0.012019      0.030825      0.066388
O	      5.95053      4.45448     -0.02066        -0.077482      0.065414      0.012192
