# total energy = -95.11587771 eV
 
CRYSTAL
PRIMVEC
2.001994 4.282752 2.024775 
6.112610 -0.047991 -2.034714 
-2.092601 4.368614 -2.104404 
PRIMCOORD
14 1
Li	      3.96798      6.48244     -2.05891        -0.069821     -0.014068      0.010208
Li	      2.00336      6.44105     -0.11757         0.040739     -0.033891      0.010999
Mn	      3.95364      4.31407     -4.05732         0.059326      0.061082     -0.087472
Mn	      4.08950      2.14779     -2.10815         0.006587     -0.007082      0.075111
Mn	      1.99233      2.15135      0.00762        -0.028468      0.025900     -0.044461
Mn	      4.08294      4.29611     -0.08573        -0.053603     -0.044960      0.020200
O	      4.07378      6.21610     -0.08867        -0.057366     -0.123576      0.010815
O	      2.09264      4.12066      0.12985         0.057672     -0.118083      0.011575
O	     -0.17493      4.55941     -2.24581         0.021933      0.032800     -0.026370
O	      4.04045      2.35369     -0.09044         0.046121      0.108505      0.074939
O	      6.07372      1.88455     -2.01853         0.004052     -0.074272      0.006764
O	      4.04889      4.08133     -2.07788        -0.012544     -0.032591      0.035167
O	      6.03507      6.66041     -2.04202         0.016806      0.157017     -0.055624
O	      6.06162      4.48591     -0.01768        -0.031434      0.063218     -0.041852
