# total energy = -95.46102451 eV
 
CRYSTAL
PRIMVEC
2.038330 4.271638 1.933636 
6.317695 -0.044405 -2.048292 
-2.138152 4.383480 -2.058790 
PRIMCOORD
14 1
Li	      0.00853      4.31395     -0.11306         0.012867     -0.022432      0.007054
Li	      2.15502      6.43560     -0.25863         0.032895     -0.027134     -0.026432
Mn	      4.09083      4.35642     -4.04227        -0.009865     -0.005773     -0.037199
Mn	      4.24706      2.15807     -2.08796        -0.000800      0.020440     -0.038978
Mn	      1.99970      2.13997     -0.01317        -0.035024      0.027360      0.019431
Mn	      4.17362      4.29584     -0.11537        -0.003701     -0.030384      0.025225
O	      4.12419      6.20681      0.00523        -0.012938     -0.011585      0.104730
O	      1.96082      4.09602      0.07495        -0.025780     -0.057935      0.063984
O	     -0.21644      4.55446     -2.10290        -0.060528      0.065276      0.019300
O	      3.97632      2.36206     -0.11219        -0.056594      0.040165      0.012752
O	      0.04634      1.95367     -0.07382         0.059572     -0.054430     -0.013278
O	      4.32031      4.08343     -2.09543         0.019501     -0.043112     -0.054267
O	     -0.00681      6.70937     -0.10753         0.013842      0.064259     -0.071125
O	      6.34393      4.52151     -0.14718         0.066553      0.035284     -0.011198
