# total energy = -100.52989177 eV
 
CRYSTAL
PRIMVEC
2.059561 4.238480 2.059222 
6.242414 -0.001606 -2.119623 
-2.079221 4.276440 -2.111615 
PRIMCOORD
15 1
Li	      0.06573      4.28827     -0.04017        -0.008005      0.021518     -0.062214
Li	      4.11780      6.40204     -2.06831        -0.064738      0.011202      0.019538
Li	      1.98790      4.25910     -2.06679         0.001276      0.015285      0.033061
Mn	      6.22192      0.02222     -2.09814         0.005709      0.021281     -0.004215
Mn	      4.22311      2.13839     -2.16123         0.000599     -0.004412      0.013453
Mn	      2.01735      2.13970     -0.01689        -0.008420      0.013676     -0.017887
Mn	      4.13919      4.25162     -0.08771        -0.002413     -0.003362     -0.005075
O	      4.35594      6.23702     -0.10288         0.019014      0.008042      0.011775
O	      2.00313      4.00817     -0.05919        -0.015838     -0.009118     -0.053403
O	     -0.10992      4.47939     -2.24596         0.051045     -0.023851      0.067835
O	      4.09044      2.24197     -0.20068         0.053486     -0.036349     -0.009549
O	      6.20156      1.98323     -1.98324        -0.052522      0.018555     -0.014745
O	      4.21425      4.09015     -2.05000         0.021292     -0.041460      0.011360
O	      6.17915      6.55740     -2.05637        -0.017008     -0.028527     -0.000493
O	      6.32951      4.42392     -0.03827         0.016524      0.037519      0.010560
