# total energy = -89.68529785 eV
 
CRYSTAL
PRIMVEC
-0.000262 2.046226 2.045314 
8.345712 0.077839 -0.077036 
0.075884 4.227198 -4.229679 
PRIMCOORD
13 1
Li	      8.38291      2.37324     -2.36778         0.001506      0.023095     -0.023467
Mn	      8.38551      4.25797     -4.25281         0.010344      0.002734     -0.004288
Mn	      4.21351      2.28209     -2.27596        -0.010145     -0.011012      0.012439
Mn	      2.25145      1.99888      0.05335        -0.006411      0.007767     -0.009603
Mn	      6.22810      2.12190     -0.06917        -0.013568      0.017244     -0.018454
O	      4.33769      2.30143     -0.24909         0.017624     -0.022154      0.020087
O	      8.22438      2.03380      0.01921         0.034023      0.006898     -0.006029
O	      6.23264      2.01304     -2.00650         0.007686      0.004882     -0.003977
O	      6.36818      0.20065     -0.19332         0.055692      0.018758     -0.018733
O	      2.31315      1.91153     -1.90555        -0.020675     -0.007476      0.009812
O	      1.86172      0.11350     -0.10664        -0.018258     -0.034601      0.032914
O	      4.17031      4.10283     -2.05131         0.012250     -0.066523      0.067620
O	      8.39689      4.41415     -2.36289        -0.070068      0.060387     -0.058322
