# total energy = -90.89177833 eV
 
CRYSTAL
PRIMVEC
4.195363 0.000956 -0.008009 
-2.084901 3.954568 -6.229191 
-2.100723 3.946173 2.076714 
PRIMCOORD
16 1
Li	      2.09893      1.97501     -0.00541         0.000439      0.000096      0.000343
Li	     -0.00592      1.98174     -2.12835         0.017419     -0.030386      0.002649
Li	      0.00617      5.92537     -2.08187         0.000346     -0.000043      0.000522
Li	     -2.07632      5.92190     -4.10368        -0.018062      0.030354     -0.002815
Mn	     -2.08014      3.95180     -6.19447        -0.010808     -0.002795     -0.001859
Mn	     -0.00224      3.95189     -0.03774         0.011252      0.002874      0.001820
Ni	      2.09828      3.94047     -2.11922         0.009753     -0.043821      0.048053
Ni	      0.01489      3.96410     -4.12099        -0.010460      0.043459     -0.047673
O	     -2.09141      5.92490     -2.07768        -0.000709     -0.000171     -0.000300
O	      2.09391      3.93939      0.07334         0.012725      0.001217      0.057890
O	      0.02200      6.00646     -4.14473        -0.028464      0.074450     -0.003726
O	      0.00318      3.95682      1.99235        -0.011868     -0.000906     -0.057999
O	     -2.08098      3.97131     -4.23407        -0.020860     -0.015574     -0.055430
O	      2.09098      1.89815     -2.09551         0.028702     -0.074368      0.003967
O	     -0.00124      3.93239     -1.99814         0.020493      0.015975      0.054713
O	      0.00116      1.97455     -0.00154         0.000101     -0.000362     -0.000154
