# total energy = -95.54027803 eV
 
CRYSTAL
PRIMVEC
-0.054641 2.067487 2.065843 
8.526449 -0.113331 -0.113729 
0.000291 4.238516 -4.239561 
PRIMCOORD
14 1
Li	      6.36996      4.12979     -2.23075        -0.000848      0.001763      0.001312
Li	      2.10463      4.18512     -2.17381         0.000772      0.002315      0.000607
Mn	      0.00089      4.21185     -4.20713        -0.001249      0.014840     -0.014888
Mn	      4.26464      2.09723     -2.20484         0.001465     -0.015146      0.016824
Mn	      2.10542      2.06904     -0.05281         0.000152     -0.001180     -0.000555
Mn	      6.36819      2.01198     -0.10966         0.000100     -0.000105     -0.001286
O	      4.23770      2.18917     -0.22954         0.002076      0.035194     -0.035463
O	      8.49903      1.83546      0.00938        -0.001732     -0.038017      0.035647
O	      6.19522      2.02654     -2.03959        -0.008593     -0.006036      0.006723
O	      6.54180      1.99753      1.82022         0.009292      0.005164     -0.007494
O	      2.27868      3.99935     -0.06709         0.008862     -0.009481      0.009444
O	      1.93180      0.13895     -0.03918        -0.008246      0.007173     -0.010053
O	      4.23661      3.98473     -2.02641        -0.003020     -0.025737      0.026961
O	     -0.02557      4.39152     -2.31964         0.000968      0.029254     -0.027779
