# total energy = -100.61260832 eV
 
CRYSTAL
PRIMVEC
-0.000222 2.038087 2.037050 
8.543192 -0.020684 0.021825 
-0.012250 4.350437 -4.352779 
PRIMCOORD
15 1
Li	      2.12721      4.27849     -2.23976         0.001390      0.000512      0.000076
Li	      4.33918      4.22043     -4.21660        -0.071867     -0.029743      0.029946
Li	      8.45871      2.28135     -2.27573         0.069668      0.028464     -0.027215
Mn	      8.40881      4.18786     -4.18309         0.048997     -0.047539      0.048401
Mn	      4.38935      2.31400     -2.30870        -0.049523      0.056039     -0.054542
Mn	      2.13351      2.10532     -0.06178        -0.001799     -0.003007     -0.001578
Mn	      6.40477      2.09480     -0.05081         0.007045     -0.000595     -0.005158
O	      4.45916      2.34649     -0.30292        -0.005533      0.006635     -0.004939
O	      8.35101      1.84331      0.20086         0.002010     -0.007659      0.009949
O	      6.55447      1.96713     -1.96115         0.056670      0.002116     -0.003672
O	      6.25575      0.18455     -0.17773        -0.057405     -0.005855      0.004463
O	      2.05621      2.01540     -2.00981        -0.040011      0.005158     -0.005019
O	      2.21095      0.15719     -0.15075         0.040669     -0.002962      0.004363
O	      4.12638      4.22273     -2.18045         0.032618     -0.025168      0.027442
O	      0.12832      4.33808     -2.29636        -0.032931      0.023606     -0.022517
