# total energy = -100.11268103 eV
 
CRYSTAL
PRIMVEC
-0.000252 2.040639 2.039846 
8.721796 0.000432 0.000614 
-0.000026 4.212090 -4.214820 
PRIMCOORD
15 1
Li	      6.37225      4.24300     -2.20075        -0.030656      0.063503     -0.061695
Li	      2.35149      4.24248     -2.20152         0.030447      0.064295     -0.061046
Li	      0.00068      2.13095     -2.12677         0.000383      0.032218     -0.030448
Mn	      0.00085      4.15190     -4.14866         0.000580     -0.037087      0.035316
Mn	      4.36192      2.21724     -2.21255        -0.000079     -0.061984      0.062049
Mn	      2.27154      2.04358      0.00244        -0.049413     -0.004912      0.005417
Mn	      6.45181      2.04374      0.00282         0.049820     -0.004630      0.005609
O	      4.36178      2.26095     -0.21541         0.000326      0.050669     -0.052676
O	      0.00073      1.92388      0.12177         0.000204      0.039762     -0.038888
O	      6.58897      1.95672     -1.95067        -0.008337      0.052347     -0.053192
O	      6.63670      0.08896     -0.08228        -0.028366     -0.038539      0.038881
O	      2.13474      1.95657     -1.95105         0.007638      0.052095     -0.053104
O	      2.08693      0.08873     -0.08264         0.027808     -0.038599      0.037790
O	      4.36186      4.11107     -2.06662        -0.000204     -0.075310      0.075483
O	      0.00062      4.26218     -2.21820        -0.000152     -0.093828      0.090504
