# total energy = -90.07352804 eV
 
CRYSTAL
PRIMVEC
2.014435 -4.170272 2.014890 
4.163760 -0.000070 -4.163208 
2.127555 4.292760 2.128053 
PRIMCOORD
13 1
Li	      6.25670      2.20616      0.01396         0.000146      0.000127     -0.000209
Mn	      6.24448      4.29124     -1.98839        -0.045897     -0.000110      0.047188
Mn	      4.25458      4.29130      0.00145         0.046351     -0.000501     -0.046970
Mn	      2.10383      2.14496      0.02409         0.000541     -0.000051      0.000312
Mn	      4.17485      2.20620      2.09560         0.000002     -0.000211     -0.000343
O	      3.98477     -2.22907      0.07609        -0.041957     -0.088125      0.017130
O	      4.06669      2.34860      0.15813        -0.017235      0.089224      0.041169
O	      2.15541     -2.22901      1.90501         0.017889     -0.088672     -0.042111
O	      2.23737      2.34865      1.98698         0.041698      0.087784     -0.017202
O	      1.96182     -0.10892     -0.11810         0.022871     -0.057008      0.022993
O	      4.26033      0.22854      2.18121        -0.022734      0.057599     -0.023312
O	      3.98093     -0.12444     -2.26248        -0.080994     -0.005531     -0.079916
O	      6.40504      0.24386      0.16241         0.079319      0.005474      0.081270
