# total energy = -95.40111356 eV
 
CRYSTAL
PRIMVEC
2.030315 -4.225013 2.030884 
4.179100 0.000034 -4.178515 
2.130104 4.326753 2.130445 
PRIMCOORD
14 1
Li	      6.30365      2.21257     -0.01273        -0.020304     -0.000398      0.020806
Li	      4.58454      0.04915     -0.42316         0.026978     -0.000655     -0.026772
Mn	      6.26046      4.32525     -1.99931        -0.017608      0.000448      0.020217
Mn	      4.26260      4.32520     -0.00160        -0.034569      0.000086      0.033673
Mn	      2.05100      2.16185      0.07955         0.026508     -0.000228     -0.027335
Mn	      4.14983      2.21267      2.14156         0.058763      0.000754     -0.058259
O	      3.93404     -2.02319      0.15952        -0.070584     -0.031314     -0.009562
O	      4.00184      2.12177      0.22711         0.010783      0.032256      0.071623
O	      2.12385     -2.27643      1.96942        -0.033945     -0.082422     -0.042204
O	      2.19170      2.37511      2.03704         0.040384      0.081305      0.035457
O	      1.94069     -0.12333     -0.10641        -0.046014     -0.107811      0.002032
O	      4.26722      0.22199      2.22069        -0.002464      0.108776      0.045794
O	      4.01957     -0.16259     -2.24943         0.007901      0.015105     -0.057292
O	      6.41066      0.26125      0.14206         0.054170     -0.015903     -0.008179
