# total energy = -95.63677772 eV
 
CRYSTAL
PRIMVEC
2.171143 -4.271440 2.160921 
4.238746 0.068441 -4.062207 
2.185509 4.205957 2.021007 
PRIMCOORD
14 1
Li	      4.27189      2.15228     -2.03457         0.000067     -0.000081      0.000802
Li	      4.26412     -2.08513     -1.96472         0.000006     -0.000346      0.000999
Mn	      8.54928      0.02320      0.14139        -0.062607     -0.026918      0.062800
Mn	      4.34915      4.21689     -0.03006         0.061553      0.026097     -0.064812
Mn	      2.15150      2.11852     -0.00424         0.000367      0.001808     -0.000999
Mn	      4.32977      2.08575      2.08676         0.000755      0.000369     -0.001006
O	      4.11586     -2.30548      0.18329         0.037706     -0.065970     -0.008940
O	      4.39884      2.31605      0.15200        -0.011749      0.081629     -0.060722
O	      2.07541     -2.35039      2.00047         0.012727     -0.081480      0.060596
O	      2.35822      2.27112      1.96918        -0.037557      0.066338      0.008265
O	      1.95380      0.14616     -0.06948        -0.010002      0.031110     -0.024053
O	      4.52039     -0.18046      2.22195         0.009323     -0.032061      0.024800
O	      4.04580      0.14785     -2.16564        -0.057330     -0.006464     -0.021251
O	      6.66716     -0.11394      0.25603         0.056741      0.005969      0.023522
