# total energy = -93.40951853 eV
 
CRYSTAL
PRIMVEC
2.109481 4.179495 2.069981 
4.121935 -2.053796 -2.044432 
0.009831 4.170532 -4.131908 
PRIMCOORD
16 1
Li	      2.08895      2.09771      0.00919        -0.002341     -0.001239     -0.002846
Li	      4.10016      2.15524     -2.06417        -0.014692      0.010822      0.003802
Li	      2.09257      4.18160     -2.05658         0.000444      0.000796     -0.002213
Li	      4.20789      4.15763     -4.09642         0.013088     -0.010833     -0.002435
Mn	      0.01336      4.16294     -4.11772         0.001616     -0.005614      0.013379
Mn	      4.17136      4.20413      0.00198         0.018562      0.021833      0.001083
Ni	      6.23529      4.22496     -2.05367         0.001314     -0.013424      0.017471
Ni	      2.07201      2.08869     -4.10612        -0.001375      0.013746     -0.013726
O	      4.15143      4.20472     -1.91395        -0.097436     -0.099645      0.052018
O	      4.15590      2.10901     -4.24563         0.095642      0.095541     -0.058164
O	      4.29540      2.22562      0.02178         0.041569      0.020123     -0.120331
O	      4.00205     -0.08218     -2.04941        -0.049500     -0.026664      0.115894
O	      2.22191      4.18239      0.10777         0.043551     -0.096110      0.010136
O	      2.07112      1.93305     -2.06004         0.101769     -0.061945      0.115005
O	      2.11428      6.43473     -2.05524        -0.104142      0.057738     -0.115014
O	      1.96330      4.18499     -4.22312        -0.048069      0.094875     -0.014060
