# total energy = -100.42539750 eV
 
CRYSTAL
PRIMVEC
2.057213 -4.492182 2.057821 
4.089115 0.000239 -4.088130 
2.057577 4.492121 2.057485 
PRIMCOORD
15 1
Li	      4.10231      2.24358     -2.04291        -0.036421      0.000333      0.035944
Li	      6.15920      2.24432      0.01426        -0.036438      0.001261      0.036308
Li	      4.24526     -0.00204     -0.12942         0.061972      0.000601     -0.062431
Mn	      6.13474      4.49086     -2.01887        -0.025102     -0.002359      0.032220
Mn	      4.13033      4.49041     -0.01484         0.026177     -0.000459     -0.017715
Mn	      2.03084      2.24483      0.02685         0.044606     -0.001397     -0.042382
Mn	      4.08833      2.24442      2.08460         0.042046      0.001930     -0.045081
O	      3.99147     -2.18326      0.12435        -0.010969     -0.044327      0.010210
O	      3.99208      2.18029      0.12376        -0.012824      0.045387      0.012175
O	      2.11164     -2.51615      2.00320        -0.029169     -0.062782      0.029584
O	      2.11220      2.51268      2.00270        -0.029640      0.063990      0.029750
O	      1.94662     -0.00158     -0.10773        -0.036138     -0.000074      0.002987
O	      4.22313     -0.00162      2.16867        -0.005934     -0.000153      0.034353
O	      3.98337     -0.00140     -2.16152        -0.011272     -0.001002     -0.062954
O	      6.27742     -0.00152      0.13277         0.059103     -0.000948      0.007031
