# total energy = -88.55240812 eV
 
CRYSTAL
PRIMVEC
2.044225 -4.308868 1.976247 
3.969919 -0.055649 -3.949580 
1.983399 4.306181 2.031070 
PRIMCOORD
13 1
Li	      4.02896     -0.02423      0.05506        -0.041120      0.005014     -0.040876
Mn	      2.04936     -4.28672      1.97734        -0.113628     -0.011973     -0.082539
Mn	      2.17661      2.12975     -0.06299         0.037128      0.052862      0.028560
Mn	      2.01597     -0.00177      2.00302         0.062767      0.000167      0.091477
Mn	      3.91062     -2.17689     -1.79632         0.023798     -0.055722      0.025544
O	      3.80944     -1.98473      0.06478         0.008554     -0.066321     -0.027510
O	      1.93090      0.19023      0.08525         0.021520      0.040031      0.017173
O	      4.04155      1.93582     -0.16000        -0.059529      0.056302     -0.003219
O	      5.88318     -2.03231     -1.89904        -0.031095      0.013796      0.096893
O	      3.93924     -0.23247      2.09516        -0.036189     -0.019476     -0.020795
O	      4.06550     -0.23792     -2.02503         0.034622     -0.034604      0.004436
O	      2.05475      1.97452      1.91383         0.124585     -0.016675     -0.054687
O	      6.08414      0.17914     -0.02509        -0.031414      0.036600     -0.034458
