# total energy = -88.54528507 eV
 
CRYSTAL
PRIMVEC
2.120375 -3.995279 2.021232 
4.257078 0.011780 -4.034221 
2.137034 3.999422 2.013395 
PRIMCOORD
13 1
Li	      4.29753      2.00509      1.96698         0.007617      0.009508     -0.015139
Mn	      8.46400      0.04463      0.00731        -0.008836     -0.021166     -0.012694
Mn	      2.57258      2.02903     -0.26412         0.064027     -0.011326     -0.071633
Mn	      6.33171      0.01543     -2.01182         0.001631     -0.020699     -0.016226
Mn	      4.16861     -1.96703     -1.86421        -0.015261     -0.021282      0.037799
O	      4.08789     -1.98925      0.01641        -0.038815     -0.026958     -0.049088
O	      1.88972      0.12855      0.09874        -0.057382     -0.053793      0.026078
O	      4.43656      1.91785      0.02622         0.118584      0.097373      0.005363
O	      6.13275     -1.97570     -2.03239        -0.047737      0.008763      0.045179
O	      4.02932     -0.10501      2.11552        -0.061930      0.059119      0.017201
O	      4.37766     -0.08205     -2.10512         0.011191      0.005733      0.010908
O	      2.24972      2.01511      1.91933         0.006851     -0.003959      0.029608
O	      6.51900      0.12946     -0.08821         0.020059     -0.021314     -0.007356
