# total energy = -88.55216512 eV
 
CRYSTAL
PRIMVEC
2.014428 -4.309677 1.990206 
3.956427 -0.018181 -3.944581 
1.996095 4.310458 2.009760 
PRIMCOORD
13 1
Li	      3.99758     -4.31018      0.01667        -0.038214     -0.027158     -0.013735
Mn	      2.01375     -4.29100      1.98721        -0.042247     -0.004933     -0.037882
Mn	      2.17568      2.13088     -0.07216         0.024792      0.042769      0.007477
Mn	      5.95615     -0.01933     -1.94854         0.031592     -0.001775      0.023503
Mn	      3.87958     -2.14254     -1.78614         0.019581     -0.021603      0.036086
O	      3.80813     -2.35971      0.06922        -0.043189     -0.014210     -0.058349
O	      1.91146      0.18574      0.07295         0.073711     -0.002794     -0.013539
O	      4.02552      2.35372     -0.14702        -0.061552      0.015620     -0.037174
O	      5.83809     -1.97946     -1.88167         0.049522     -0.009736      0.049463
O	      3.92626     -0.24941      2.09832        -0.006388     -0.025693     -0.057937
O	      4.03078     -0.19488     -2.03637         0.001404     -0.015982      0.071055
O	      2.06646      1.95853      1.88803         0.052823      0.016918      0.019991
O	      6.06354      0.23456     -0.02626        -0.061835      0.048578      0.011041
