# total energy = -94.55200797 eV
 
CRYSTAL
PRIMVEC
2.070035 -4.269755 2.031661 
4.132483 -0.005122 -4.065103 
2.028306 4.235034 2.000060 
PRIMCOORD
14 1
Li	      2.11139     -2.11530     -0.04579         0.021258      0.023490     -0.044731
Li	      4.21639     -0.01734      0.01276        -0.027819      0.011243     -0.043262
Mn	      8.18599     -0.02734     -0.01252        -0.039727      0.040051     -0.020385
Mn	      2.23103      2.10030     -0.16957        -0.040989      0.042628      0.011486
Mn	      6.16119     -0.02811     -2.06113         0.012515     -0.013305      0.100307
Mn	      4.05260     -2.13119     -1.95118        -0.002736     -0.044341     -0.003333
O	      4.03048     -1.94907     -0.01404        -0.001998     -0.037687     -0.015409
O	      1.90629      0.13118      0.08033         0.038211      0.008525      0.020956
O	      4.16285      1.92849      0.04461         0.004695      0.038104     -0.043522
O	      1.99582     -2.00244      1.96020        -0.005207      0.055275      0.021203
O	      3.96422     -0.18120      2.11203        -0.024112     -0.030668     -0.022060
O	      4.23127     -0.19526     -2.12134         0.019929     -0.007319     -0.003198
O	      2.11104      1.97875      1.96025         0.004227     -0.097561      0.056114
O	      6.25379      0.17046     -0.13446         0.041752      0.011565     -0.014167
