# total energy = -94.49489243 eV
 
CRYSTAL
PRIMVEC
2.054860 -4.046977 2.065215 
4.244952 0.005575 -4.254972 
2.061012 4.048318 2.062049 
PRIMCOORD
14 1
Li	      4.11330      2.01625     -2.06622        -0.010037      0.024194      0.029713
Li	      2.18914     -2.01815     -0.12514        -0.003939     -0.005939     -0.025706
Mn	      4.08935      0.00724      4.09772         0.041019     -0.023736      0.046207
Mn	      2.27632      2.03229     -0.17298         0.004585     -0.032573     -0.009054
Mn	      2.03459      0.00833      2.03752        -0.042706      0.007781     -0.046934
Mn	      4.06660     -2.00253     -1.96973         0.000647     -0.045389      0.011997
O	      4.18392     -2.01001      0.01772        -0.006188     -0.015359      0.017151
O	      1.90920      0.09352      0.10011         0.018426      0.008155      0.005199
O	      4.24967      1.98566     -0.06075        -0.013955      0.077133     -0.011365
O	      6.18186     -2.00824     -2.17492         0.000054     -0.024405     -0.002216
O	      3.97083     -0.08978      2.16574         0.028778      0.033676     -0.028835
O	      4.34188     -0.07824     -2.34572         0.004270      0.005093      0.004581
O	      2.07960      2.02596      1.93060        -0.002933      0.026025     -0.007352
O	      6.40619      0.10704     -0.28233        -0.018020     -0.034657      0.016613
