# total energy = -94.05773233 eV
 
CRYSTAL
PRIMVEC
2.027340 -4.235692 2.014025 
4.074534 -0.002554 -4.051765 
2.024751 4.235417 2.015474 
PRIMCOORD
14 1
Li	      2.06842     -0.00093     -1.99486        -0.020409      0.000431     -0.035511
Li	      4.11165     -0.00032      0.03092        -0.073750      0.009868     -0.069367
Mn	      4.03693      0.02092      4.01036         0.109580     -0.003724      0.125026
Mn	      2.14175      2.11559     -0.09318        -0.080065     -0.067818     -0.030416
Mn	      2.01224     -0.00190      1.99965        -0.051573     -0.001814     -0.058394
Mn	      3.98575     -2.11030     -1.94811        -0.036860      0.062526      0.001914
O	      4.05048     -2.12003      0.00458         0.045467     -0.023200     -0.040732
O	      1.92878      0.17064      0.05594         0.049303      0.041965      0.032625
O	      4.09000      2.11978      0.00049        -0.051859      0.028066     -0.016366
O	      6.04867     -1.95781     -2.03605         0.105373      0.039908     -0.011067
O	      3.96405     -0.18251      2.07896        -0.000570      0.041948     -0.026872
O	      4.13674     -0.16584     -2.12587         0.041330     -0.022987      0.010398
O	      2.01945      1.96024      1.97602        -0.000615     -0.070546      0.089608
O	      6.17583      0.18446     -0.10757        -0.035352     -0.034622      0.029153
