# total energy = -99.85087094 eV
 
CRYSTAL
PRIMVEC
2.096954 -4.245867 2.058326 
4.188611 -0.013089 -4.138126 
2.059792 4.222058 2.047768 
PRIMCOORD
15 1
Li	      2.15359     -0.00602     -2.05579         0.030538      0.009418     -0.018416
Li	      2.14607     -2.11716     -0.03742        -0.006571      0.002992      0.005888
Li	      4.27674     -0.02514      0.01699        -0.004846      0.018341     -0.032640
Mn	      8.30144     -0.02415     -0.03168        -0.131144      0.017666     -0.040383
Mn	      2.24797      2.09335     -0.11475        -0.028298      0.049442      0.024393
Mn	      6.22931     -0.02581     -2.10563         0.040048     -0.030553      0.096460
Mn	      4.12870     -2.11288     -1.98651         0.022411     -0.076510     -0.002400
O	      4.10255     -2.11159      0.04434         0.000426     -0.019701      0.028480
O	      1.91512      0.11234      0.04881         0.048026     -0.096454     -0.022149
O	      4.27965      2.07595      0.06683         0.051861      0.043549     -0.003329
O	      6.13809     -1.98529     -2.14551        -0.026193      0.034660      0.009298
O	      4.04123     -0.16393      2.15240        -0.022748      0.049788     -0.023838
O	      4.23400     -0.16860     -2.19026         0.007766      0.036813      0.038257
O	      2.15195      1.95571      1.94598         0.017049     -0.030275     -0.056485
O	      6.34909      0.16179     -0.11329         0.001674     -0.009178     -0.003134
