# total energy = -89.77940876 eV
 
CRYSTAL
PRIMVEC
0.000163 2.120597 2.116677 
8.704146 -4.108509 4.100766 
2.164293 2.011946 -4.124137 
PRIMCOORD
16 1
Li	      4.56469      1.81525     -1.81745         0.026536     -0.036680      0.037403
Li	      4.52237     -0.05194      0.05520         0.029513     -0.034842      0.035750
Li	      4.45528     -2.04194      2.03890         0.012926      0.027266     -0.022142
Li	      6.28823      0.05835      2.06007        -0.033901      0.037153     -0.039138
Mn	      8.69931     -4.08929      4.08482         0.017246     -0.005097      0.003239
Mn	      2.23023      2.03931      0.08420         0.112440     -0.053510      0.058720
Ni	      6.37818     -1.89337      4.01043         0.023009     -0.046022      0.038966
Ni	      8.62234     -1.97805      1.97733         0.038478     -0.004420      0.003831
O	      2.09267      2.03305     -2.02913         0.054444     -0.038012      0.037092
O	      6.58310      0.08890     -0.08603        -0.147960     -0.000487      0.002896
O	      6.67524     -2.04006      2.03730        -0.094089      0.100354     -0.095862
O	      8.93266      0.07152      2.04553         0.107579      0.037267     -0.031087
O	      8.83828     -2.00708      4.12630         0.028543     -0.069284      0.063289
O	      1.93647      0.05969     -0.05207        -0.015279      0.076073     -0.077433
O	      4.02774      1.99299      0.12810        -0.153755      0.017841     -0.020191
O	      4.30733     -0.06705      2.18348        -0.005729     -0.007600      0.004667
