# total energy = -89.46077737 eV
 
CRYSTAL
PRIMVEC
0.000024 3.951728 -0.000026 
4.208833 -0.000155 4.208750 
4.309262 -0.000038 -4.309193 
PRIMCOORD
13 1
Li	      5.67739      0.00189      1.36618        -0.019278      0.000236     -0.020142
Mn	      4.19902      0.00141      4.19703        -0.157418      0.000116     -0.156409
Mn	      2.27053      1.97741     -0.06061         0.127214      0.000069     -0.077706
Mn	      2.23992      0.00151      2.23806         0.048075      0.000687      0.050417
Mn	      4.25053      1.97739     -2.04052        -0.076659      0.000390      0.128918
O	      2.02464      0.00156      0.18606        -0.030693      0.000182      0.022558
O	      4.49732      0.00157     -2.28627         0.022099      0.000527     -0.031858
O	      2.00519      1.97743      2.00349        -0.019151      0.001075     -0.021164
O	      0.21037      1.97744      0.20838         0.013221     -0.001072      0.013329
O	      4.11496      1.97747     -0.19582        -0.073618     -0.000869     -0.076280
O	      4.08847      0.00148      2.35031        -0.053550     -0.000272      0.127508
O	      2.36586      1.97735     -1.94549         0.093562     -0.000833      0.096605
O	      6.66173      0.00143     -0.22245         0.126196     -0.000235     -0.055777
