# total energy = -94.93474548 eV
 
CRYSTAL
PRIMVEC
0.000032 4.126287 -0.000012 
4.236098 -0.000146 4.186888 
4.236238 -0.000035 -4.187054 
PRIMCOORD
14 1
Li	      4.48442      2.06472      1.72335         0.075942     -0.000740      0.058659
Li	      6.10704      0.00150      1.72261        -0.074628     -0.000460      0.058808
Mn	      8.43670      0.00143     -0.00015         0.056058      0.001059      0.023904
Mn	      2.15555      2.06475      0.00011        -0.049850      0.000617      0.016912
Mn	      6.42309      0.00155     -1.95948        -0.050267      0.000254     -0.072063
Mn	      4.16950      2.06476     -1.95941         0.044938      0.000186     -0.068182
O	      1.96344      0.00162      0.18693         0.024553     -0.000249      0.017558
O	      4.35871      0.00162     -2.17914        -0.041379     -0.000663      0.060619
O	      6.23382      2.06472     -2.17933         0.042144     -0.000569      0.062215
O	      4.39291      2.06475     -4.00007        -0.025418     -0.000898      0.016675
O	      4.00900      2.06487     -0.10770         0.035720     -0.000757     -0.057146
O	      4.13017      0.00147      2.27960        -0.011730      0.001286     -0.030967
O	      2.22605      2.06474     -1.90738         0.011661      0.001065     -0.029022
O	      6.58347      0.00143     -0.10791        -0.037744     -0.000130     -0.057970
