# total energy = -94.76854103 eV
 
CRYSTAL
PRIMVEC
0.000013 4.122665 0.000064 
4.196878 -0.000079 4.196976 
4.231908 -0.000111 -4.232015 
PRIMCOORD
14 1
Li	      6.12722      2.06238      0.16804        -0.028232     -0.000350      0.028681
Li	      4.39895      2.06279      1.89691         0.030156     -0.000232     -0.030465
Mn	      4.15308      0.00151      4.15192        -0.066231      0.001375     -0.066097
Mn	      2.18638      2.06292     -0.08763        -0.070776      0.000510      0.070233
Mn	      2.14372      0.00158      2.14249         0.065783      0.001014      0.065071
Mn	      4.14559      2.06293     -2.04710         0.069763     -0.000297     -0.069062
O	      1.95681      0.00167      0.14176         0.088113      0.000029     -0.087151
O	      4.37505      0.00154     -2.27661        -0.088298     -0.000447      0.089072
O	      1.98283      2.06295      1.98096        -0.001732     -0.000596      0.000059
O	      0.11756      2.06298      0.11600         0.001070     -0.000505      0.001044
O	      4.07608      2.06284     -0.15739        -0.086681      0.001285     -0.086951
O	      4.03180      0.00164      2.26385         0.007840     -0.001558     -0.008456
O	      2.25586      2.06293     -1.97726         0.087381      0.000952      0.085700
O	      6.49686      0.00135     -0.20146        -0.008156     -0.001180      0.008322
