# total energy = -94.93456031 eV
 
CRYSTAL
PRIMVEC
0.000026 4.125013 -0.000006 
4.186867 -0.000117 4.236321 
4.186641 -0.000046 -4.236126 
PRIMCOORD
14 1
Li	      4.55908      0.00144      0.24892        -0.062129      0.001043      0.072809
Li	      4.55745      2.06434      1.86990        -0.059901     -0.000860     -0.074443
Mn	      8.23923      0.00157     -0.06869         0.085552      0.000245      0.053778
Mn	      2.09367      2.06425     -0.03690        -0.021009      0.000427      0.063500
Mn	      6.28052      0.00161     -2.08207        -0.027513      0.001056     -0.067421
Mn	      4.05237      2.06420     -2.05025         0.083178      0.000501     -0.049259
O	      1.90729      0.00174      0.15428        -0.026714     -0.000436     -0.014589
O	      4.27220      0.00171     -2.24040        -0.056509     -0.000690      0.041368
O	      6.09402      2.06415     -2.27326        -0.024631     -0.000734      0.013577
O	      4.27213      2.06424     -4.11473        -0.057078     -0.001098     -0.042877
O	      4.00117      2.06442     -0.10668         0.028086     -0.000051     -0.016939
O	      4.00120      0.00158      2.22385         0.030738      0.001248      0.017249
O	      2.20118      2.06426     -1.88988         0.053365     -0.000534     -0.041556
O	      6.38819      0.00146     -0.22932         0.054566     -0.000119      0.044804
