# total energy = -100.12596065 eV
 
CRYSTAL
PRIMVEC
0.000035 4.338480 0.000012 
4.128600 -0.000097 4.128683 
4.160246 -0.000037 -4.160336 
PRIMCOORD
15 1
Li	      6.07609      2.16986      0.05275        -0.072278      0.001067     -0.002072
Li	      4.21222      2.17039      1.91761        -0.000387      0.000370     -0.075694
Li	      6.09387      0.00125      1.93220        -0.107242      0.000385     -0.106429
Mn	      4.10707      0.00168      4.10587         0.123420     -0.000225      0.123044
Mn	      2.14704      2.17092     -0.04178        -0.037817      0.000022      0.160497
Mn	      2.11281      0.00168      2.11153        -0.038063     -0.000322     -0.038180
Mn	      4.11983      2.17097     -2.01484         0.159705     -0.000470     -0.037231
O	      1.93959      0.00173      0.10925        -0.029929      0.000003     -0.123309
O	      4.27075      0.00170     -2.22233        -0.122699      0.000915     -0.027661
O	      1.99354      2.17095      1.99161        -0.006340     -0.000440     -0.002981
O	      0.11998      2.17105      0.11837        -0.053576      0.001514     -0.053900
O	      4.02930      2.17083     -0.13252         0.049912      0.000550      0.049149
O	      4.03387      0.00186      2.21250         0.147097     -0.001375      0.024772
O	      2.17438      2.17101     -1.98698        -0.037280     -0.000748     -0.038251
O	      6.37381      0.00199     -0.12777         0.025477     -0.001246      0.148247
