# total energy = -90.33998027 eV
 
CRYSTAL
PRIMVEC
4.208279 4.360224 0.071189 
-4.062086 4.214031 0.075826 
-4.141162 -0.002284 4.131881 
PRIMCOORD
13 1
Li	      0.07695      4.29203      0.07509         0.000738      0.001534      0.000560
Mn	     -4.13919      0.00145      4.13125        -0.001723     -0.001704     -0.001682
Mn	     -2.03521      2.18138      4.16693         0.004905      0.001840     -0.003689
Mn	     -1.99575      4.28962      2.13871         0.003461     -0.004288      0.002621
Mn	      0.03550      2.18244      2.10078        -0.003761      0.002713      0.005054
O	      0.19638      2.26571      0.19281         0.063121     -0.032432      0.054405
O	     -3.92897      4.44794      2.04958         0.046537      0.068198     -0.030819
O	     -2.07749      6.22795      2.05772        -0.021941     -0.040860     -0.010916
O	     -1.90037      4.13058      4.07373        -0.010916     -0.069878     -0.066067
O	     -0.06225      4.13125      2.22792        -0.046356     -0.068821      0.030234
O	     -4.18738      6.31384      4.08492        -0.066621      0.031106     -0.055770
O	     -2.09081      4.44869      0.20390         0.009309      0.070318      0.064751
O	     -1.91376      2.35110      2.21994         0.023249      0.042274      0.011318
