# total energy = -95.63323070 eV
 
CRYSTAL
PRIMVEC
4.172939 4.350168 -0.083391 
-4.056842 4.231958 0.046625 
-4.181881 -0.078232 4.328883 
PRIMCOORD
14 1
Li	     -6.20744      2.04305      4.35072         0.000633      0.000577      0.000365
Li	      0.06160      4.29590     -0.01605         0.001515      0.002071      0.000606
Mn	     -4.17995     -0.07429      4.32807        -0.004745     -0.004992     -0.002445
Mn	     -2.09366      2.10042      4.28647         0.007774      0.002558     -0.004508
Mn	     -2.03129      4.25568      2.14520         0.003255     -0.008559      0.005656
Mn	     -0.00248      2.13944      2.12174        -0.008955      0.002898      0.010337
O	      0.16184      2.25324      0.20189        -0.028750     -0.015695      0.061518
O	     -3.97519      4.41931      2.01379         0.050501      0.008364     -0.032142
O	     -2.14155      6.17392      2.26261        -0.047991     -0.072955     -0.047544
O	     -1.97647      4.11794      4.08577        -0.004661     -0.064468     -0.044992
O	     -0.08702      4.09184      2.27641        -0.050505     -0.009690      0.030115
O	     -4.22374      6.25822      4.08883         0.025336      0.015861     -0.066707
O	     -2.08565      4.39309      0.20492         0.006382      0.066663      0.043234
O	     -1.92067      2.33700      2.02792         0.050211      0.077365      0.046507
