# total energy = -95.62940455 eV
 
CRYSTAL
PRIMVEC
4.158862 4.085454 -0.074961 
-4.158799 4.084949 -0.075229 
-4.158793 -0.080310 4.381083 
PRIMCOORD
14 1
Li	     -2.07763     -0.03586      2.18942        -0.000265      0.001127     -0.000980
Li	     -6.23575      1.96673      4.34218         0.001244      0.000973     -0.000964
Mn	     -4.15691     -0.07679      4.38015         0.001433      0.001330      0.001424
Mn	     -2.07731      1.96592      4.34293        -0.001017     -0.000803      0.000201
Mn	     -2.07758      4.04846      2.11478        -0.000662      0.001652     -0.000783
Mn	      0.00192      2.00614      2.15222         0.001632     -0.001531     -0.001329
O	      0.07976      1.93745      0.20376        -0.012141      0.006910      0.046056
O	     -4.07844      4.15706      1.87236        -0.013375     -0.006155     -0.044204
O	     -2.24179      5.97880      2.14258        -0.036820      0.055510     -0.001840
O	      2.24585      3.97644     -0.00937         0.036144      0.054763     -0.003915
O	     -0.07659      3.94009      2.35675         0.013048      0.006564      0.045374
O	     -4.23457      6.15976      4.02539         0.011399     -0.006682     -0.045328
O	     -6.40070      4.12062      4.23848        -0.036729     -0.056714      0.004942
O	     -1.91308      2.11823      2.08659         0.036110     -0.056945      0.001347
