# total energy = -100.65787314 eV
 
CRYSTAL
PRIMVEC
4.157591 4.265616 -0.023170 
-4.060170 4.171164 -0.015519 
-4.113059 -0.067123 4.405655 
PRIMCOORD
15 1
Li	     -2.05426     -0.02913      2.20217        -0.000716     -0.000453     -0.000792
Li	     -6.14062      2.02345      4.39655         0.000326     -0.001380      0.000053
Li	      0.05165      4.22296     -0.01729        -0.000155     -0.001663     -0.000445
Mn	     -4.11103     -0.06323      4.40484        -0.006104     -0.003695     -0.004273
Mn	     -2.03243      2.06924      4.39352         0.006815      0.004561     -0.004436
Mn	     -2.00635      4.18850      2.18287         0.007589     -0.008452      0.002835
Mn	      0.02444      2.10262      2.19028        -0.012110      0.009479      0.008309
O	      0.13781      2.22448      0.26031        -0.013487      0.037467      0.055284
O	     -3.98665      4.33538      1.99512        -0.053392      0.009241     -0.005436
O	     -2.11588      6.13302      2.26437        -0.036010      0.021250      0.024122
O	      2.22040      4.10400      0.04828        -0.030833      0.007664     -0.001084
O	     -0.02530      4.04168      2.36971         0.053443     -0.012759      0.005946
O	     -4.14944      6.15273      4.10523         0.009979     -0.037361     -0.057680
O	     -6.23236      4.27291      4.31711         0.032044     -0.008504      0.000287
O	     -1.89609      2.24346      2.10109         0.042612     -0.015396     -0.022690
