# total energy = -25.83944640 eV
 
CRYSTAL
PRIMVEC
-0.025129 2.204413 1.952341 
1.951410 -2.205313 -0.029375 
3.884289 2.152318 -1.961374 
PRIMCOORD
4 1
Li	      3.68953     -0.02256     -0.03611         0.586002      0.366732     -0.389919
Mn	      1.85750     -2.08944     -0.02927        -1.954556     -1.338357      1.081449
O	      3.75775      2.03869     -0.09879         0.619577      0.515766      0.271087
O	      1.76961      0.01733      0.05957         0.748976      0.455859     -0.962617
