# total energy = -26.04911712 eV
 
CRYSTAL
PRIMVEC
-0.025394 2.227618 1.972892 
1.971951 -2.228527 -0.029684 
3.925176 2.174974 -1.982020 
PRIMCOORD
4 1
Li	      3.76762     -0.02303     -0.03687         0.430502      0.299926     -0.298341
Mn	      1.89681     -2.13366     -0.02989        -1.517285     -1.022769      0.825480
O	      3.83728      2.08184     -0.10088         0.487572      0.399099      0.210263
O	      1.80706      0.01770      0.06084         0.599211      0.323744     -0.737401
