# total energy = -26.13338107 eV
 
CRYSTAL
PRIMVEC
-0.025526 2.239220 1.983167 
1.982222 -2.240134 -0.029839 
3.945620 2.186302 -1.992343 
PRIMCOORD
4 1
Li	      3.80697     -0.02327     -0.03726         0.363420      0.262719     -0.258318
Mn	      1.91662     -2.15594     -0.03020        -1.310114     -0.878607      0.705456
O	      3.87735      2.10358     -0.10194         0.423100      0.348898      0.182673
O	      1.82593      0.01788      0.06147         0.523595      0.266990     -0.629811
