# total energy = -26.26375266 eV
 
CRYSTAL
PRIMVEC
-0.025790 2.262424 2.003718 
2.002763 -2.263348 -0.030148 
3.986507 2.208958 -2.012989 
PRIMCOORD
4 1
Li	      3.88628     -0.02375     -0.03803         0.238588      0.190665     -0.177817
Mn	      1.95655     -2.20085     -0.03083        -0.903891     -0.605629      0.483040
O	      3.95813      2.14741     -0.10406         0.294946      0.245031      0.127622
O	      1.86397      0.01826      0.06275         0.370357      0.169932     -0.432845
