# total energy = -26.34722178 eV
 
CRYSTAL
PRIMVEC
-0.026055 2.285628 2.024269 
2.023304 -2.286562 -0.030457 
4.027395 2.231614 -2.033635 
PRIMCOORD
4 1
Li	      3.96640     -0.02425     -0.03882         0.134959      0.114099     -0.099242
Mn	      1.99689     -2.24623     -0.03146        -0.526496     -0.352356      0.277996
O	      4.03973      2.19168     -0.10620         0.174974      0.144206      0.069660
O	      1.90240      0.01863      0.06405         0.216564      0.094051     -0.248413
