# total energy = -26.38955232 eV
 
CRYSTAL
PRIMVEC
-0.026584 2.332037 2.065371 
2.064386 -2.332989 -0.031075 
4.109169 2.276926 -2.074927 
PRIMCOORD
4 1
Li	      2.06472      2.30775     -0.00933        -0.037015     -0.035618      0.034351
Mn	      0.01442     -0.00538     -0.00168         0.162092      0.110803     -0.086568
O	      4.20545      2.28159     -0.11056        -0.053924     -0.049955     -0.023282
O	      1.98044      0.01940      0.06667        -0.071153     -0.025230      0.075500
