# total energy = -26.37689058 eV
 
CRYSTAL
PRIMVEC
-0.026716 2.343639 2.075647 
2.074657 -2.344596 -0.031230 
4.129613 2.288254 -2.085250 
PRIMCOORD
4 1
Li	      2.09564      2.31910     -0.00958        -0.072709     -0.073565      0.063174
Mn	      0.02489     -0.01710     -0.00185         0.314175      0.219986     -0.166847
O	      4.24740      2.30435     -0.11166        -0.103055     -0.095211     -0.043877
O	      2.00020      0.01959      0.06734        -0.138411     -0.051210      0.147550
