# total energy = -26.32629635 eV
 
CRYSTAL
PRIMVEC
-0.026981 2.366844 2.096198 
2.095198 -2.367810 -0.031539 
4.170500 2.310910 -2.105897 
PRIMCOORD
4 1
Li	      2.15809      2.34181     -0.01009        -0.134566     -0.146704      0.119311
Mn	      0.04613     -0.04089     -0.00220         0.606861      0.434532     -0.320430
O	      4.33192      2.35020     -0.11389        -0.206641     -0.189755     -0.075661
O	      2.04000      0.01998      0.06868        -0.265654     -0.098073      0.276780
