# total energy = -26.28920120 eV
 
CRYSTAL
PRIMVEC
-0.027113 2.378446 2.106473 
2.105468 -2.379417 -0.031694 
4.190944 2.322238 -2.116220 
PRIMCOORD
4 1
Li	      2.18962      2.35316     -0.01034        -0.162700     -0.181598      0.145531
Mn	      0.05690     -0.05295     -0.00238         0.741955      0.542532     -0.391068
O	      4.37450      2.37330     -0.11500        -0.253509     -0.243376     -0.089404
O	      2.06005      0.02018      0.06935        -0.325746     -0.117559      0.334940
