# total energy = -26.19273714 eV
 
CRYSTAL
PRIMVEC
-0.027377 2.401650 2.127024 
2.126010 -2.402631 -0.032003 
4.231831 2.344894 -2.136866 
PRIMCOORD
4 1
Li	      2.25330      2.37586     -0.01086        -0.211612     -0.249490      0.194939
Mn	      0.07876     -0.07743     -0.00274         0.991645      0.749696     -0.524796
O	      4.46027      2.41984     -0.11726        -0.345988     -0.346270     -0.107468
O	      2.10044      0.02057      0.07071        -0.434045     -0.153936      0.437325
