# total energy = -26.06935732 eV
 
CRYSTAL
PRIMVEC
-0.027642 2.424854 2.147575 
2.146551 -2.425845 -0.032312 
4.272718 2.367550 -2.157512 
PRIMCOORD
4 1
Li	      2.31779      2.39856     -0.01138        -0.254019     -0.312148      0.235167
Mn	      0.10103     -0.10238     -0.00310         1.211518      0.955582     -0.648826
O	      4.54688      2.46682     -0.11954        -0.430712     -0.456208     -0.106354
O	      2.14123      0.02097      0.07208        -0.526786     -0.187227      0.520012
