# total energy = -25.99822911 eV
 
CRYSTAL
PRIMVEC
-0.027774 2.436457 2.157851 
2.156821 -2.437451 -0.032467 
4.293162 2.378878 -2.167835 
PRIMCOORD
4 1
Li	      2.35034      2.40990     -0.01164        -0.273520     -0.342600      0.255146
Mn	      0.11232     -0.11502     -0.00329         1.308854      1.056246     -0.704633
O	      4.59049      2.49048     -0.12069        -0.467837     -0.512557     -0.106775
O	      2.16177      0.02117      0.07278        -0.567497     -0.201089      0.556262
