# total energy = -50.92888121 eV
 
CRYSTAL
PRIMVEC
-0.000010 1.917667 1.917396 
4.434071 0.000003 -0.000024 
-0.000149 3.908618 -3.904999 
PRIMCOORD
8 1
Li	      0.00380      3.70407     -0.06279        -0.174121     -0.434966      0.808256
Li	      2.10955      3.66530     -1.84523         0.182248      0.229314     -0.498499
Mn	      0.00217      5.49275     -1.84701        -0.630069      4.713160     -2.328257
Mn	      2.10862      1.87985     -0.05792         0.750245     -2.310717     -1.264707
O	      0.00222      1.74093      0.08233        -0.937762     -1.310193      0.548579
O	      2.10743      3.62591      0.01794         0.296723      4.017205     -1.727861
O	      0.00167      3.74575     -1.92399        -0.228310     -2.822060      0.632632
O	      2.10838      1.91900      1.72335         0.741046     -2.081744      3.829857
