# total energy = -51.31375862 eV
 
CRYSTAL
PRIMVEC
-0.000011 1.927760 1.927487 
4.457409 0.000003 -0.000024 
-0.000150 3.929190 -3.925552 
PRIMCOORD
8 1
Li	      0.00384      3.74316     -0.06346        -0.140579     -0.390695      0.700421
Li	      2.13181      3.70399     -1.86471         0.151297      0.198588     -0.416287
Mn	      0.00218      5.55072     -1.86650        -0.539141      4.114792     -2.079049
Mn	      2.13087      1.89969     -0.05853         0.625180     -1.946975     -1.040811
O	      0.00224      1.75930      0.08320        -0.788611     -1.183272      0.495031
O	      2.12967      3.66418      0.01813         0.251104      3.452715     -1.544032
O	      0.00169      3.78528     -1.94429        -0.196559     -2.407441      0.580482
O	      2.13063      1.93925      1.74154         0.637309     -1.837713      3.304245
