# total energy = -51.64582662 eV
 
CRYSTAL
PRIMVEC
-0.000011 1.937853 1.937579 
4.480746 0.000003 -0.000025 
-0.000151 3.949762 -3.946104 
PRIMCOORD
8 1
Li	      0.00389      3.78246     -0.06412        -0.112819     -0.348489      0.596619
Li	      2.15419      3.74288     -1.88429         0.118821      0.169827     -0.345450
Mn	      0.00221      5.60899     -1.88610        -0.454147      3.550366     -1.834877
Mn	      2.15324      1.91964     -0.05914         0.516616     -1.616418     -0.839491
O	      0.00227      1.77777      0.08407        -0.649264     -1.054421      0.442719
O	      2.15203      3.70265      0.01832         0.204008      2.928233     -1.363130
O	      0.00170      3.82502     -1.96471        -0.164234     -2.026671      0.525381
O	      2.15300      1.95961      1.75982         0.541019     -1.602428      2.818230
