# total energy = -92.81217507 eV
 
CRYSTAL
PRIMVEC
-0.000367 2.067169 2.068661 
8.209503 -4.219559 4.221160 
2.019896 2.097684 -4.168231 
PRIMCOORD
16 1
Li	      2.03869      2.04149      0.02735        -0.013063      0.013246     -0.009663
Li	      3.98753      2.10930     -2.11080        -0.011648     -0.004823      0.004906
Li	      6.27606     -0.16103      2.22940         0.013093     -0.004594      0.014171
Li	      8.24039     -2.07258      2.07258         0.019340     -0.004855      0.000239
Mn	      0.05910     -0.00413      0.00396         0.039083     -0.003952      0.005394
Mn	      4.08269     -2.09368      2.09583        -0.017230      0.014039     -0.016499
Ni	      3.96557      0.00222     -0.00376        -0.004178     -0.068449      0.069283
Ni	      8.20192     -0.04732      0.04628        -0.028799      0.014224     -0.013403
O	      2.02815      2.22357     -2.22717         0.009728      0.015561     -0.015391
O	      6.08525      0.10914     -0.11044         0.006916      0.027867     -0.027653
O	      6.00311     -2.13328      2.13617        -0.054045      0.095366     -0.102973
O	      8.30670     -0.02433      2.08995         0.026978     -0.116339      0.122535
O	      8.22390     -2.24792      4.31812         0.106079     -0.023686      0.019407
O	      1.96624      0.00792     -0.00682        -0.162243     -0.003274     -0.003513
O	      4.17608      1.99866      0.06791         0.073527      0.131064     -0.125694
O	      4.08140     -0.11517      2.18574        -0.003538     -0.081395      0.078854
