# total energy = -52.16445003 eV
 
CRYSTAL
PRIMVEC
-0.000011 1.958039 1.957762 
4.527420 0.000003 -0.000025 
-0.000153 3.990905 -3.987209 
PRIMCOORD
8 1
Li	      0.00397      3.86168     -0.06547        -0.065244     -0.268723      0.414728
Li	      2.19931      3.82126     -1.92375         0.068044      0.120866     -0.223393
Mn	      0.00226      5.72646     -1.92560        -0.303672      2.516947     -1.352044
Mn	      2.19833      1.95983     -0.06038         0.333396     -1.054897     -0.515458
O	      0.00231      1.81500      0.08583        -0.423256     -0.797853      0.335602
O	      2.19709      3.78019      0.01871         0.131839      1.991858     -1.005859
O	      0.00174      3.90512     -2.00585        -0.109227     -1.353494      0.404004
O	      2.19809      2.00065      1.79667         0.368118     -1.154703      1.942420
