# total energy = -52.35738051 eV
 
CRYSTAL
PRIMVEC
-0.000011 1.968132 1.967854 
4.550757 0.000003 -0.000025 
-0.000153 4.011477 -4.007762 
PRIMCOORD
8 1
Li	      0.00400      3.90159     -0.06614        -0.047525     -0.225438      0.333950
Li	      2.22204      3.86076     -1.94363         0.050733      0.095049     -0.174166
Mn	      0.00228      5.78564     -1.94550        -0.238082      2.039909     -1.113878
Mn	      2.22105      1.98009     -0.06101         0.256711     -0.817004     -0.392946
O	      0.00234      1.83376      0.08672        -0.327626     -0.666562      0.279057
O	      2.21980      3.81926      0.01890         0.101223      1.583688     -0.825573
O	      0.00176      3.94549     -2.02658        -0.085249     -1.065587      0.335927
O	      2.22081      2.02133      1.81525         0.289815     -0.944054      1.557630
