# total energy = -52.50973272 eV
 
CRYSTAL
PRIMVEC
-0.000011 1.978225 1.977945 
4.574095 0.000003 -0.000025 
-0.000154 4.032048 -4.028315 
PRIMCOORD
8 1
Li	      0.00405      3.94171     -0.06682        -0.033154     -0.180476      0.257020
Li	      2.24489      3.90045     -1.96362         0.033064      0.072808     -0.127868
Mn	      0.00230      5.84513     -1.96550        -0.179088      1.585139     -0.877427
Mn	      2.24389      2.00046     -0.06163         0.190336     -0.603029     -0.286421
O	      0.00236      1.85261      0.08761        -0.243747     -0.536684      0.218887
O	      2.24263      3.85853      0.01910         0.075196      1.208209     -0.651992
O	      0.00178      3.98606     -2.04742        -0.063761     -0.808242      0.271909
O	      2.24364      2.04211      1.83391         0.221154     -0.737724      1.195893
