# total energy = -52.70348876 eV
 
CRYSTAL
PRIMVEC
-0.000011 1.998411 1.998128 
4.620769 0.000003 -0.000025 
-0.000156 4.073192 -4.069420 
PRIMCOORD
8 1
Li	      0.00413      4.02256     -0.06819        -0.012841     -0.086969      0.116136
Li	      2.29093      3.98046     -2.00389         0.011895      0.035015     -0.054874
Mn	      0.00235      5.96503     -2.00582        -0.079767      0.748022     -0.421177
Mn	      2.28992      2.04149     -0.06290         0.078558     -0.253387     -0.127318
O	      0.00241      1.89062      0.08941        -0.105345     -0.274074      0.099975
O	      2.28863      3.93768      0.01949         0.034586      0.546572     -0.317234
O	      0.00181      4.06782     -2.08942        -0.029179     -0.356712      0.141994
O	      2.28966      2.08400      1.87153         0.102092     -0.358466      0.562497
