# total energy = -52.74962594 eV
 
CRYSTAL
PRIMVEC
-0.000011 2.008504 2.008220 
4.644106 0.000003 -0.000026 
-0.000157 4.093763 -4.089973 
PRIMCOORD
8 1
Li	      0.00417      4.06329     -0.06888        -0.005190     -0.042383      0.054525
Li	      2.31413      4.02077     -2.02419         0.004032      0.017838     -0.022489
Mn	      0.00237      6.02544     -2.02613        -0.036078      0.354646     -0.197170
Mn	      2.31311      2.06216     -0.06353         0.034656     -0.110511     -0.069259
O	      0.00243      1.90976      0.09031        -0.047406     -0.136056      0.036255
O	      2.31180      3.97755      0.01968         0.015471      0.259607     -0.157865
O	      0.00183      4.10901     -2.11058        -0.013703     -0.164043      0.076949
O	      2.31285      2.10511      1.89048         0.048218     -0.179098      0.279055
