# total energy = -52.75119726 eV
 
CRYSTAL
PRIMVEC
-0.000011 2.028690 2.028403 
4.690781 0.000003 -0.000026 
-0.000158 4.134907 -4.131078 
PRIMCOORD
8 1
Li	      0.00427      2.11669     -2.09868         0.002716      0.047395     -0.051333
Li	      2.36088      4.10199     -2.06508        -0.002991     -0.013802      0.025656
Mn	      0.00243      4.11847     -4.09547         0.033608     -0.386431      0.237366
Mn	      2.35984      2.10382     -0.06482        -0.032293      0.124565      0.009266
O	      0.00248      1.94834      0.09214         0.038371      0.153801     -0.090602
O	      2.35852      2.02922     -2.00832        -0.009626     -0.241725      0.148286
O	      0.00187      4.19202     -2.15321         0.011019      0.161559     -0.057127
O	      2.35959      0.11894     -0.09973        -0.040803      0.154638     -0.221511
