# total energy = -52.71074344 eV
 
CRYSTAL
PRIMVEC
-0.000011 2.038783 2.038494 
4.714118 0.000003 -0.000026 
-0.000159 4.155478 -4.151630 
PRIMCOORD
8 1
Li	      0.00431      2.14795     -2.10947         0.004025      0.090593     -0.099282
Li	      2.38443      4.14291     -2.08568        -0.002613     -0.024482      0.042957
Mn	      0.00246      4.16970     -4.12618         0.060910     -0.733831      0.449216
Mn	      2.38338      2.12481     -0.06546        -0.059916      0.217298      0.032636
O	      0.00251      1.96778      0.09306         0.071419      0.304713     -0.157139
O	      2.38205      2.05960     -2.01821        -0.017913     -0.457653      0.293471
O	      0.00189      4.23384     -2.17469         0.022181      0.293026     -0.121490
O	      2.38312      0.13027     -0.09059        -0.078094      0.310336     -0.440369
