# total energy = -52.64534523 eV
 
CRYSTAL
PRIMVEC
-0.000011 2.048876 2.048586 
4.737455 0.000003 -0.000026 
-0.000160 4.176050 -4.172183 
PRIMCOORD
8 1
Li	      0.00435      2.17941     -2.12027         0.002687      0.135759     -0.143983
Li	      2.40810      4.18403     -2.10638        -0.000904     -0.037747      0.059127
Mn	      0.00264      0.04518      0.01519         0.083190     -1.074636      0.652691
Mn	      2.40703      2.14590     -0.06611        -0.084182      0.297584      0.048137
O	      0.00253      1.98731      0.09398         0.099446      0.460710     -0.222506
O	      2.40569      2.09018     -2.02810        -0.025663     -0.650154      0.431812
O	      0.00191      4.27586     -2.19628         0.032676      0.413538     -0.186398
O	      2.40678      0.14171     -0.08134        -0.107250      0.454945     -0.638880
