# total energy = -90.37788382 eV
 
CRYSTAL
PRIMVEC
0.000056 2.089658 -2.089652 
0.000007 2.089652 2.089647 
16.382602 0.000340 -0.000060 
PRIMCOORD
16 1
Li	      2.09812      2.08906      0.00055        -0.012219     -0.000133     -0.001501
Li	      3.84367      4.17903     -0.00006        -0.036214     -0.000350     -0.000487
Li	     10.39817      2.08897     -0.00199        -0.010415     -0.000166      0.001877
Li	     14.28084      2.08868      0.00002         0.034410      0.000220     -0.001026
Mn	     16.33232      4.17831      0.00019         0.001455      0.000088     -0.000256
Mn	      8.35148      2.08921      2.08789         0.142598      0.000010      0.000073
Ni	      6.03345      2.08956     -0.00136         0.038442     -0.000451      0.000047
Ni	     12.33960      4.17840     -0.00092        -0.016625      0.000005      0.000026
O	     14.44863      4.17822     -0.00006         0.078536      0.001700     -0.000140
O	     16.32847      2.08860      0.00022         0.007351      0.000880     -0.000579
O	     10.19821      2.08885      2.08777        -0.133659      0.000649      0.001014
O	     12.33130      2.08866     -0.00091        -0.021056     -0.001160     -0.000886
O	      6.36910      2.08954      2.08819         0.065132     -0.000695      0.000788
O	      8.22557      2.08924     -0.00179         0.064359      0.000409      0.001456
O	      1.79709      4.17823      0.00035        -0.025817     -0.000162     -0.000114
O	      4.10649      2.08952     -0.00038        -0.176278     -0.000846     -0.000292
