# total energy = -52.55677704 eV
 
CRYSTAL
PRIMVEC
-0.000011 2.058969 2.058678 
4.760792 0.000003 -0.000026 
-0.000160 4.196622 -4.192736 
PRIMCOORD
8 1
Li	      0.00440      2.21108     -2.13107         0.000501      0.177456     -0.186016
Li	      2.43188      4.22536     -2.12718         0.000511     -0.046921      0.073675
Mn	      0.00266      0.07644      0.00483         0.102184     -1.404389      0.852679
Mn	      2.43081      2.16709     -0.06677        -0.102821      0.362946      0.054888
O	      0.00256      2.00693      0.09491         0.121699      0.626213     -0.288621
O	      2.42945      2.12097     -2.03799        -0.027332     -0.824168      0.561553
O	      0.00193      4.31809     -2.21797         0.040176      0.518525     -0.243808
O	      2.43055      0.15325     -0.07201        -0.134918      0.590337     -0.824351
