# total energy = -52.44667757 eV
 
CRYSTAL
PRIMVEC
-0.000011 2.069062 2.068769 
4.784130 0.000003 -0.000026 
-0.000161 4.217193 -4.213288 
PRIMCOORD
8 1
Li	      0.00444      2.24295     -2.14187        -0.004018      0.220989     -0.226082
Li	      2.45578      4.26688     -2.14809         0.006334     -0.055242      0.084799
Mn	      0.00269      0.10800     -0.00563         0.118040     -1.726101      1.049465
Mn	      2.45470      2.18839     -0.06742        -0.119307      0.418103      0.054704
O	      0.00258      2.02666      0.09584         0.140782      0.796907     -0.351156
O	      2.45333      2.15196     -2.04788        -0.030988     -0.985155      0.685017
O	      0.00194      4.36053     -2.23977         0.047121      0.608144     -0.304598
O	      2.45444      0.16490     -0.06257        -0.157963      0.722354     -0.992149
