# total energy = -52.16748646 eV
 
CRYSTAL
PRIMVEC
-0.000011 2.089248 2.088952 
4.830804 0.000003 -0.000027 
-0.000163 4.258337 -4.254394 
PRIMCOORD
8 1
Li	      0.00453      2.30731     -2.16348        -0.015952      0.302845     -0.294561
Li	      2.50393      4.35055     -2.19021         0.022147     -0.071718      0.102062
Mn	      0.00274      0.17205     -0.02687         0.139335     -2.351471      1.419406
Mn	      2.50283      2.23130     -0.06875        -0.144969      0.497133      0.043063
O	      0.00263      2.06640      0.09772         0.159163      1.159479     -0.478645
O	      2.50143      2.21453     -2.06765        -0.030064     -1.243870      0.914982
O	      0.00198      4.44603     -2.28368         0.059217      0.753144     -0.419422
O	      2.50256      0.18852     -0.04342        -0.188877      0.954458     -1.286884
