# total energy = -51.62177271 eV
 
CRYSTAL
PRIMVEC
-0.000012 2.119527 2.119227 
4.900816 0.000003 -0.000027 
-0.000165 4.320052 -4.316051 
PRIMCOORD
8 1
Li	      0.00466      2.40539     -2.19594        -0.046901      0.415962     -0.375932
Li	      2.57704      4.47756     -2.25415         0.050163     -0.086639      0.122529
Mn	      0.00282      0.27040     -0.05949         0.149067     -3.256335      1.917722
Mn	      2.57590      2.29644     -0.07075        -0.167682      0.559296      0.002360
O	      0.00271      2.12673      0.10057         0.163235      1.761372     -0.660061
O	      2.57446      2.30991     -2.09730        -0.013783     -1.523909      1.194000
O	      0.00204      4.57583     -2.35036         0.073266      0.878886     -0.571795
O	      2.57562      0.22473     -0.01397        -0.207365      1.251366     -1.628824
