# total energy = -50.86297002 eV
 
CRYSTAL
PRIMVEC
3.975565 -0.000045 -0.000294 
0.000294 -0.000150 -3.973442 
1.987880 4.061579 -1.986705 
PRIMCOORD
8 1
Li	      3.77783      3.85515     -3.77514         0.580125      0.254395     -0.248184
Li	      3.77739      1.92890     -1.88823         0.521709     -0.276931      0.490048
Mn	      1.88815      3.85688     -1.88783        -0.322628      3.550442      1.929251
Mn	      1.88857      1.92656     -3.77524        -1.405468     -0.894523     -1.662164
O	      1.88956      2.07904     -1.88788        -0.505892     -2.972584      1.895997
O	      1.88944      0.14968     -3.77524        -0.419841     -3.266796     -0.152267
O	      3.77780      1.77634     -3.77573         1.898933      0.532051     -0.618533
O	      1.88997      3.70575     -3.77516        -0.346938      3.073947     -1.634149
