# total energy = -51.26709008 eV
 
CRYSTAL
PRIMVEC
3.996489 -0.000045 -0.000296 
0.000296 -0.000151 -3.994355 
1.998342 4.082955 -1.997161 
PRIMCOORD
8 1
Li	      3.81770      3.89584     -3.81499         0.494776      0.211993     -0.217531
Li	      3.81725      1.94926     -1.90816         0.438192     -0.243159      0.411146
Mn	      1.90808      3.89759     -1.90776        -0.282780      3.075300      1.643986
Mn	      1.90850      1.94689     -3.81508        -1.179750     -0.764447     -1.394915
O	      1.90950      2.10098     -1.90780        -0.431785     -2.532820      1.610842
O	      1.90938      0.15126     -3.81508        -0.368761     -2.825379     -0.154423
O	      3.81767      1.79509     -3.81558         1.615096      0.474984     -0.529110
O	      1.90992      3.74486     -3.81500        -0.284989      2.603527     -1.369996
