# total energy = -51.61402034 eV
 
CRYSTAL
PRIMVEC
4.017413 -0.000045 -0.000297 
0.000297 -0.000152 -4.015268 
2.008805 4.104332 -2.007618 
PRIMCOORD
8 1
Li	      3.85779      3.93674     -3.85504         0.413368      0.177053     -0.187308
Li	      3.85733      1.96972     -1.92819         0.367786     -0.211325      0.341812
Mn	      1.92811      3.93851     -1.92778        -0.246622      2.616081      1.382912
Mn	      1.92854      1.96733     -3.85514        -0.976304     -0.641492     -1.151980
O	      1.92955      2.12304     -1.92783        -0.361769     -2.136639      1.343682
O	      1.92942      0.15285     -3.85514        -0.321601     -2.400582     -0.148642
O	      3.85775      1.81394     -3.85564         1.357374      0.419719     -0.450334
O	      1.92997      3.78417     -3.85505        -0.232232      2.177186     -1.130142
