# total energy = -51.63876754 eV
 
CRYSTAL
PRIMVEC
4.038337 -0.000045 -0.000299 
0.000299 -0.000153 -4.036180 
2.019268 4.125709 -2.018074 
PRIMCOORD
8 1
Li	      3.89808      3.97786     -3.89530         0.343821      0.144999     -0.162159
Li	      3.89761      1.99029     -1.94833         0.297437     -0.180746      0.279866
Mn	      1.94825      3.97964     -1.94792        -0.210748      2.184870      1.144000
Mn	      1.94868      1.98788     -3.89540        -0.796113     -0.525935     -0.937902
O	      1.94970      2.14521     -1.94796        -0.297382     -1.766590      1.108792
O	      1.94958      0.15445     -3.89540        -0.273277     -2.004869     -0.132941
O	      3.89805      1.83288     -3.89590         1.123490      0.374477     -0.378225
O	      1.95013      3.82369     -3.89531        -0.187226      1.773793     -0.921431
