# total energy = -52.15056888 eV
 
CRYSTAL
PRIMVEC
4.059261 -0.000046 -0.000300 
0.000300 -0.000153 -4.057093 
2.029730 4.147086 -2.028530 
PRIMCOORD
8 1
Li	      3.93857      4.01918     -3.93577         0.275274      0.118672     -0.133324
Li	      3.93811      2.01097     -1.96857         0.239438     -0.154264      0.221450
Mn	      1.96849      4.02099     -1.96816        -0.176304      1.786900      0.923256
Mn	      1.96893      2.00853     -3.93587        -0.629010     -0.421742     -0.738619
O	      1.96996      2.16750     -1.96820        -0.240508     -1.434923      0.887536
O	      1.96983      0.15605     -3.93587        -0.231279     -1.626879     -0.123089
O	      3.93854      1.85192     -3.93638         0.905497      0.311277     -0.308443
O	      1.97039      3.86342     -3.93578        -0.143108      1.420957     -0.728767
