# total energy = -52.34790616 eV
 
CRYSTAL
PRIMVEC
4.080185 -0.000046 -0.000302 
0.000302 -0.000154 -4.078006 
2.040193 4.168462 -2.038987 
PRIMCOORD
8 1
Li	      3.97928      4.06072     -3.97645         0.216384      0.090634     -0.108762
Li	      3.97882      2.03176     -1.98892         0.189327     -0.125012      0.173627
Mn	      1.98884      4.06255     -1.98850        -0.143940      1.422304      0.724969
Mn	      1.98928      2.02929     -3.97655        -0.483494     -0.326808     -0.569012
O	      1.99032      2.18990     -1.98854        -0.190615     -1.135665      0.693833
O	      1.99019      0.15766     -3.97655        -0.190010     -1.293498     -0.104064
O	      3.97925      1.87106     -3.97707         0.710315      0.258112     -0.243841
O	      1.99075      3.90335     -3.97646        -0.107967      1.109933     -0.566749
