# total energy = -52.61916605 eV
 
CRYSTAL
PRIMVEC
4.122033 -0.000046 -0.000305 
0.000305 -0.000156 -4.119832 
2.061118 4.211216 -2.059899 
PRIMCOORD
8 1
Li	      4.06132      4.14445     -4.05844         0.114081      0.045985     -0.062909
Li	      4.06085      2.07365     -2.02993         0.098009     -0.072074      0.089179
Mn	      2.02984      4.14631     -2.02950        -0.081211      0.795109      0.385033
Mn	      2.03029      2.07113     -4.05854        -0.242718     -0.170751     -0.290176
O	      2.03136      2.23506     -2.02954        -0.104723     -0.619528      0.366242
O	      2.03122      0.16091     -4.05854        -0.112566     -0.734134     -0.067836
O	      4.06130      1.90964     -4.05906         0.381552      0.157238     -0.135062
O	      2.03180      3.98383     -4.05845        -0.052424      0.598155     -0.284473
