# total energy = -52.70014755 eV
 
CRYSTAL
PRIMVEC
4.142957 -0.000047 -0.000307 
0.000307 -0.000156 -4.140745 
2.071580 4.232593 -2.070356 
PRIMCOORD
8 1
Li	      4.10266      4.18663     -4.09975         0.074155      0.028437     -0.044411
Li	      4.10218      2.09476     -2.05059         0.062390     -0.048026      0.056575
Mn	      2.05050      4.18851     -2.05015        -0.050724      0.509153      0.241428
Mn	      2.05096      2.09221     -4.09985        -0.144911     -0.103303     -0.177100
O	      2.05203      2.25780     -2.05020        -0.069333     -0.394793      0.229153
O	      2.05190      0.16255     -4.09985        -0.076281     -0.493213     -0.046682
O	      4.10263      1.92908     -4.10038         0.236895      0.114366     -0.083802
O	      2.05248      4.02438     -4.09976        -0.032191      0.387378     -0.175161
