# total energy = -52.74851559 eV
 
CRYSTAL
PRIMVEC
4.163881 -0.000047 -0.000308 
0.000308 -0.000157 -4.161658 
2.082043 4.253969 -2.080812 
PRIMCOORD
8 1
Li	      4.14421      4.22902     -4.14126         0.032047      0.015781     -0.021353
Li	      4.14372      2.11596     -2.07135         0.029276     -0.026470      0.028775
Mn	      2.07127      4.23093     -2.07092        -0.018318      0.245656      0.112738
Mn	      2.07173      2.11340     -4.14137        -0.060677     -0.039245     -0.081744
O	      2.07281      2.28067     -2.07096        -0.036597     -0.203253      0.107094
O	      2.07268      0.16420     -4.14137        -0.043275     -0.260196     -0.020656
O	      4.14418      1.94861     -4.14190         0.112492      0.070398     -0.042662
O	      2.07326      4.06513     -4.14128        -0.014948      0.197329     -0.082192
