# total energy = -52.75695255 eV
 
CRYSTAL
PRIMVEC
4.205729 -0.000047 -0.000311 
0.000311 -0.000159 -4.203483 
2.102968 4.296723 -2.101725 
PRIMCOORD
8 1
Li	      2.12496      0.01774     -2.12320        -0.032853     -0.012132      0.017865
Li	      4.22743      2.15871     -2.11320        -0.024797      0.017561     -0.020706
Mn	      0.01014      0.01967     -0.01102         0.047413     -0.223995     -0.100290
Mn	      2.11358      2.15609     -4.22503         0.070658      0.078884      0.068193
O	      2.11468      2.32674     -2.11280         0.018354      0.101731     -0.091151
O	      2.11455      0.16751     -4.22502         0.026036      0.152716      0.023883
O	      4.22790      1.98798     -4.22557        -0.105320      0.003764      0.038744
O	      2.11515      4.14725     -4.22493         0.000510     -0.118530      0.063462
