# total energy = -52.72198594 eV
 
CRYSTAL
PRIMVEC
4.226653 -0.000047 -0.000313 
0.000313 -0.000160 -4.224396 
2.113430 4.318099 -2.112181 
PRIMCOORD
8 1
Li	      2.15667      0.03940     -2.15488        -0.059693     -0.021551      0.035071
Li	      4.26960      2.18024     -2.13428        -0.045860      0.038835     -0.041663
Mn	      0.02076      0.04135     -0.02164         0.077456     -0.436387     -0.185682
Mn	      2.13466      2.17760     -4.26717         0.120747      0.128982      0.123372
O	      2.13578      2.34995     -2.13387         0.038071      0.219189     -0.168698
O	      2.13564      0.16918     -4.26717         0.054814      0.339650      0.049863
O	      4.27007      2.00781     -4.26772        -0.194532     -0.024663      0.072358
O	      2.13624      4.18862     -4.26708         0.008996     -0.244054      0.115380
