# total energy = -52.66379231 eV
 
CRYSTAL
PRIMVEC
4.247577 -0.000048 -0.000314 
0.000314 -0.000160 -4.245309 
2.123893 4.339476 -2.122637 
PRIMCOORD
8 1
Li	      2.18859      0.06127     -2.18678        -0.085241     -0.033614      0.054744
Li	      4.31198      2.20189     -2.15546        -0.064604      0.059722     -0.060123
Mn	      0.03148      0.06325     -0.03237         0.110798     -0.621901     -0.264096
Mn	      2.15585      2.19921     -4.30953         0.161791      0.174348      0.165008
O	      2.15698      2.37328     -2.15505         0.055066      0.316768     -0.233025
O	      2.15684      0.17086     -4.30952         0.085481      0.511662      0.075369
O	      4.31245      2.02774     -4.31008        -0.275052     -0.052590      0.105549
O	      2.15745      4.23019     -4.30943         0.011761     -0.354396      0.156573
