# total energy = -52.58461263 eV
 
CRYSTAL
PRIMVEC
4.268501 -0.000048 -0.000316 
0.000316 -0.000161 -4.266222 
2.134355 4.360853 -2.133094 
PRIMCOORD
8 1
Li	      2.22072      0.08336     -2.21888        -0.107069     -0.044695      0.071888
Li	      4.35456      2.22363     -2.17675        -0.078925      0.074744     -0.072651
Mn	      0.04230      0.08535     -0.04319         0.141049     -0.797280     -0.328340
Mn	      2.17714      2.22093     -4.35209         0.194840      0.218230      0.196350
O	      2.17828      2.39671     -2.17634         0.070068      0.408341     -0.287950
O	      2.17782      0.17271     -0.08587         0.112758      0.668433      0.100110
O	      4.35504      2.04776     -4.35265        -0.342570     -0.078934      0.133244
O	      2.17876      4.27198     -4.35199         0.009849     -0.448839      0.187349
