# total energy = -52.48672785 eV
 
CRYSTAL
PRIMVEC
4.289425 -0.000048 -0.000317 
0.000317 -0.000162 -4.287135 
2.144818 4.382230 -2.143550 
PRIMCOORD
8 1
Li	      2.25306      0.10566     -2.25120        -0.124655     -0.052984      0.086495
Li	      4.39736      2.24549     -2.19814        -0.092264      0.093333     -0.084246
Mn	      0.05323      0.10768     -0.05413         0.169749     -0.956394     -0.383130
Mn	      2.19854      2.24276     -4.39486         0.219282      0.261216      0.219193
O	      2.19969      2.42027     -2.19773         0.081194      0.479751     -0.330738
O	      2.19923      0.17441     -0.10773         0.142135      0.811754      0.128279
O	      4.39784      2.06789     -4.39543        -0.404857     -0.115768      0.159641
O	      2.20017      4.31396     -4.39476         0.009416     -0.520908      0.204506
