# total energy = -92.82889494 eV
 
CRYSTAL
PRIMVEC
2.021799 4.133946 2.092792 
4.114971 -2.093980 -2.110288 
0.000754 4.112483 -4.143523 
PRIMCOORD
16 1
Li	      2.09196      1.96373     -0.07526         0.001062      0.002742     -0.013808
Li	      2.05251     -0.02897     -2.07156        -0.022574     -0.001808     -0.004610
Li	      2.08962      4.07268     -2.15695         0.003418      0.009552      0.009184
Li	      4.03975      4.16650     -4.10854         0.009605     -0.005103      0.000796
Mn	      0.01814      0.02327      0.00609         0.022095      0.017991      0.006031
Mn	      0.01582      2.05033     -2.06799         0.023299     -0.013590     -0.005130
Ni	      4.02698      2.05439     -2.04247        -0.012680     -0.050535     -0.038763
Ni	      4.05123      6.17878     -2.08664        -0.000973     -0.043598     -0.057242
O	      4.22275      4.08142     -2.10962         0.043676      0.024219      0.008824
O	      4.09880      1.91983     -4.24052         0.098524     -0.024716     -0.082472
O	      4.20924      2.03882     -0.02223         0.045062      0.003624      0.028136
O	      4.14192     -0.09018     -2.23168        -0.005930     -0.087666     -0.025286
O	      1.98209      4.24608      0.14897         0.113620      0.026389      0.031155
O	      1.97252      2.05509     -2.10950        -0.150153      0.003461      0.104650
O	      2.02996      6.30687     -1.93159        -0.130957      0.024523      0.039694
O	      1.91205      4.09743     -4.14008        -0.037093      0.114515     -0.001159
