# total energy = -52.37167980 eV
 
CRYSTAL
PRIMVEC
4.310349 -0.000048 -0.000319 
0.000319 -0.000163 -4.308047 
2.155280 4.403606 -2.154006 
PRIMCOORD
8 1
Li	      2.28561      0.12817     -2.28372        -0.142567     -0.063292      0.103226
Li	      4.44037      2.26745     -2.21964        -0.101223      0.108991     -0.094029
Mn	      0.06427      0.13021     -0.06517         0.198488     -1.097091     -0.428845
Mn	      2.22004      2.26469     -4.43784         0.239061      0.302067      0.232653
O	      2.22120      2.44394     -2.21922         0.086757      0.543316     -0.361345
O	      2.22074      0.17611     -0.12979         0.167370      0.934461      0.152216
O	      4.44085      2.08811     -4.43841        -0.453531     -0.147536      0.180322
O	      2.22168      4.35615     -4.43775         0.005645     -0.580916      0.215803
