# total energy = -52.24149705 eV
 
CRYSTAL
PRIMVEC
4.331273 -0.000049 -0.000321 
0.000320 -0.000164 -4.328960 
2.165743 4.424983 -2.164463 
PRIMCOORD
8 1
Li	      2.31836      0.15090     -2.31646        -0.155995     -0.071792      0.117213
Li	      4.48358      2.28951     -2.24124        -0.108730      0.125642     -0.100651
Mn	      0.07540      0.15296     -0.07630         0.226936     -1.220451     -0.465829
Mn	      2.24164      2.28673     -4.48103         0.253383      0.341239      0.236607
O	      2.24282      2.46772     -2.24082         0.094464      0.594585     -0.385394
O	      2.24235      0.17783     -0.15207         0.193673      1.037296      0.178203
O	      4.48407      2.10843     -4.48161        -0.503678     -0.190029      0.205664
O	      2.24331      4.39854     -4.48093        -0.000053     -0.616490      0.214187
