# total energy = -51.94256356 eV
 
CRYSTAL
PRIMVEC
4.373121 -0.000049 -0.000324 
0.000324 -0.000165 -4.370786 
2.186668 4.467737 -2.185375 
PRIMCOORD
8 1
Li	      2.38451      0.19700     -2.38255        -0.179540     -0.088281      0.146204
Li	      4.57064      2.33397     -2.28476        -0.119044      0.151736     -0.110811
Mn	      0.09800      0.19910     -0.09890         0.281147     -1.421554     -0.513986
Mn	      2.28517      2.33113     -4.56804         0.270723      0.414168      0.220995
O	      2.28637      2.51564     -2.28433         0.101828      0.668161     -0.407455
O	      2.28590      0.18128     -0.19725         0.241588      1.201807      0.233166
O	      4.57114      2.14938     -4.56863        -0.581130     -0.285978      0.243618
O	      0.10020      0.01621     -2.38256        -0.015571     -0.640060      0.188271
