# total energy = -51.77691832 eV
 
CRYSTAL
PRIMVEC
4.394045 -0.000049 -0.000325 
0.000325 -0.000166 -4.391699 
2.197130 4.489113 -2.195832 
PRIMCOORD
8 1
Li	      2.41789      0.22037     -2.41591        -0.189611     -0.096636      0.161070
Li	      4.61448      2.35636     -2.30667        -0.122343      0.164661     -0.114259
Mn	      0.10945      0.22248     -0.11036         0.309197     -1.503795     -0.527263
Mn	      2.30709      2.35349     -4.61186         0.272493      0.446041      0.203449
O	      2.30830      2.53977     -2.30624         0.106589      0.695655     -0.411648
O	      2.30782      0.18301     -0.22016         0.261632      1.264778      0.259908
O	      4.61499      2.16999     -4.61245        -0.611531     -0.330892      0.259904
O	      0.11167      0.03785     -2.41593        -0.026426     -0.639811      0.168840
