# total energy = -75.84786376 eV
 
CRYSTAL
PRIMVEC
0.000257 1.921113 1.919521 
6.636316 1.946638 -0.027057 
0.016166 3.905467 -3.906836 
PRIMCOORD
12 1
Li	      0.01669      1.88227     -1.87791        -0.086707     -1.026720      0.584836
Li	      2.11319      3.69840     -1.87529        -0.204048      0.503743     -0.804837
Li	      4.20479      5.51589     -1.87016        -0.688805      0.415720     -0.107833
Mn	      6.31779      5.51260     -3.69000         1.986235      4.107111     -4.200587
Mn	      2.10320      1.84355     -0.01894        -1.582706     -5.119646      2.893027
Mn	      4.20905      3.73309     -0.08438         1.499140      2.015623      1.576552
O	      0.00421      1.73571      0.08772        -1.843599     -1.212199      1.186830
O	      2.08920      3.60935      0.03945        -0.627943      2.958026     -0.920863
O	      4.20899      3.65340     -1.82939         0.470968      1.474279     -3.641258
O	      0.01213      3.74336     -1.91904        -0.549771     -2.071970      2.182987
O	      2.13359      5.61290     -1.96517         0.484619      1.521210     -0.627875
O	      4.20281      1.95030     -0.12549         1.142618     -3.565177      1.879022
