# total energy = -76.50727910 eV
 
CRYSTAL
PRIMVEC
0.000258 1.931224 1.929624 
6.671244 1.956884 -0.027199 
0.016251 3.926022 -3.927399 
PRIMCOORD
12 1
Li	      0.01686      1.90214     -1.89773        -0.066087     -0.902608      0.536216
Li	      2.13549      3.73743     -1.89508        -0.170340      0.460285     -0.702114
Li	      4.24917      5.57410     -1.88990        -0.632101      0.337887     -0.089483
Mn	      6.38447      5.57078     -3.72894         1.916522      3.761539     -3.842973
Mn	      2.12540      1.86301     -0.01914        -1.390293     -4.495651      2.584437
Mn	      4.25347      3.77249     -0.08527         1.272008      1.698868      1.298034
O	      0.00426      1.75403      0.08865        -1.668995     -1.142140      1.108050
O	      2.11125      3.64744      0.03987        -0.520766      2.552422     -0.837359
O	      4.25342      3.69196     -1.84869         0.402405      1.322269     -3.123984
O	      0.01226      3.78287     -1.93929        -0.596218     -1.882804      1.968982
O	      2.15611      5.67214     -1.98591         0.431873      1.359287     -0.564094
O	      4.24717      1.97088     -0.12682         1.021992     -3.069353      1.664288
