# total energy = -77.59178859 eV
 
CRYSTAL
PRIMVEC
0.000261 1.951447 1.949830 
6.741100 1.977375 -0.027484 
0.016421 3.967132 -3.968523 
PRIMCOORD
12 1
Li	      0.01722      1.94219     -1.93768        -0.034631     -0.669207      0.425481
Li	      2.18045      3.81611     -1.93498        -0.116279      0.363347     -0.508631
Li	      4.33863      5.69145     -1.92968        -0.505885      0.219750     -0.057097
Mn	      6.51888      5.68806     -3.80744         1.667632      2.992786     -3.054055
Mn	      2.17014      1.90223     -0.01955        -1.041210     -3.335808      1.977326
Mn	      4.34301      3.85191     -0.08706         0.882235      1.165740      0.832533
O	      0.00435      1.79096      0.09052        -1.282602     -0.954944      0.916944
O	      2.15570      3.72423      0.04070        -0.342859      1.816478     -0.660731
O	      4.34296      3.76968     -1.88761         0.275260      1.012742     -2.205262
O	      0.01252      3.86251     -1.98012        -0.610470     -1.480001      1.526057
O	      2.20150      5.79155     -2.02772         0.337452      1.055455     -0.443258
O	      4.33658      2.01237     -0.12949         0.771358     -2.186337      1.250692
