# total energy = -78.02091396 eV
 
CRYSTAL
PRIMVEC
0.000262 1.961558 1.959932 
6.776028 1.987620 -0.027627 
0.016506 3.987687 -3.989086 
PRIMCOORD
12 1
Li	      0.01740      1.96236     -1.95781        -0.024115     -0.559068      0.363196
Li	      2.20310      3.85576     -1.95508        -0.094173      0.313548     -0.421178
Li	      4.38370      5.75058     -1.94973        -0.440159      0.171725     -0.042488
Mn	      6.58660      5.74715     -3.84700         1.496533      2.581109     -2.632324
Mn	      2.19269      1.92199     -0.01975        -0.879381     -2.793876      1.680436
Mn	      4.38814      3.89193     -0.08797         0.717156      0.937440      0.645080
O	      0.00439      1.80957      0.09145        -1.083991     -0.842544      0.805145
O	      2.17809      3.76293      0.04113        -0.270324      1.489296     -0.568354
O	      4.38808      3.80885     -1.90723         0.222537      0.863733     -1.800788
O	      0.01265      3.90263     -2.00069        -0.579646     -1.268231      1.298928
O	      2.22437      5.85172     -2.04879         0.284996      0.899062     -0.380372
O	      4.38163      2.03328     -0.13083         0.650565     -1.792193      1.052721
