# total energy = -78.66480336 eV
 
CRYSTAL
PRIMVEC
0.000265 1.981780 1.980138 
6.845884 2.008111 -0.027911 
0.016677 4.028798 -4.030210 
PRIMCOORD
12 1
Li	      0.01776      2.00303     -1.99839        -0.007246     -0.357807      0.246548
Li	      2.24876      3.93567     -1.99560        -0.054031      0.211918     -0.262106
Li	      4.47455      5.86976     -1.99014        -0.297245      0.094691     -0.019058
Mn	      6.72311      5.86626     -3.92673         1.071255      1.722369     -1.756466
Mn	      2.23814      1.96182     -0.02016        -0.568806     -1.783545      1.099662
Mn	      4.47908      3.97259     -0.08979         0.426930      0.550093      0.346966
O	      0.00448      1.84707      0.09335        -0.694999     -0.589287      0.557934
O	      2.22323      3.84091      0.04198        -0.151969      0.905137     -0.385382
O	      4.47902      3.88779     -1.94675         0.126232      0.568244     -1.094805
O	      0.01291      3.98352     -2.04216        -0.458041     -0.830717      0.840164
O	      2.27047      5.97300     -2.09125         0.190296      0.607298     -0.254441
O	      4.47244      2.07542     -0.13354         0.417624     -1.098394      0.680985
