# total energy = -90.50145856 eV
 
CRYSTAL
PRIMVEC
-0.018412 2.230375 2.043352 
2.044254 -2.229928 -0.018004 
10.452165 13.519994 0.029935 
PRIMCOORD
16 1
Li	      2.17414      2.58523     -0.13988        -0.004143      0.026098      0.005477
Li	      4.15696      2.20939     -2.12442        -0.007141     -0.017535      0.005719
Li	      6.14383      6.56231     -4.10954         0.019332      0.011276     -0.020826
Li	     10.34663     11.08378     -8.31147         0.014368     -0.002335     -0.017111
Mn	     10.41798     15.71857     -8.38865         0.004184     -0.007851     -0.002468
Mn	      8.27187      6.74950     -6.23936        -0.032584     -0.006522      0.033286
Ni	      4.20181      6.73086     -2.16941        -0.002608     -0.020527      0.005184
Ni	      8.38835     11.39264     -6.35474        -0.053111     -0.027959      0.055328
O	     10.50234     13.55471     -8.47302         0.019541      0.015603     -0.015475
O	      8.21155      9.10886     -6.17997        -0.053265     -0.036391      0.056741
O	     10.36718      8.94111     -8.33261         0.117577      0.065921     -0.118827
O	      6.31797      9.01263     -4.28584         0.007155      0.014594     -0.006645
O	      4.34441      4.59870     -2.31148        -0.122111     -0.023172      0.122745
O	      6.15334      4.53060     -4.11998         0.113574      0.023599     -0.119982
O	      1.92219     -0.14981      0.10197        -0.020825     -0.022020      0.013037
O	      2.09766      4.56108     -0.06595         0.000055      0.007220      0.003816
