# total energy = -79.13142727 eV
 
CRYSTAL
PRIMVEC
0.000272 2.032336 2.030652 
7.020524 2.059338 -0.028623 
0.017102 4.131573 -4.133022 
PRIMCOORD
12 1
Li	      0.01868      2.10653     -2.10165         0.007221      0.073022     -0.061108
Li	      2.36496      4.13903     -2.09871         0.008417     -0.052544      0.055445
Li	      4.70576      6.17306     -2.09297         0.067175     -0.010007      0.002069
Mn	      0.04998      4.11004     -4.10100        -0.286161     -0.420132      0.426943
Mn	      2.35379      2.06320     -0.02120         0.135994      0.407172     -0.261838
Mn	      4.71052      4.17786     -0.09443        -0.087211     -0.090662     -0.054329
O	      0.00472      1.94251      0.09817         0.145748      0.175689     -0.156508
O	      2.33811      4.03937      0.04415         0.031796     -0.168594      0.080604
O	      4.71046      4.08867     -2.04734        -0.031110     -0.125322      0.201804
O	      0.01358      4.18935     -2.14768         0.160003      0.176812     -0.173365
O	      2.38778      6.28163     -2.19930        -0.054854     -0.172222      0.081447
O	      4.70353      2.18266     -0.14044        -0.097018      0.206788     -0.141164
