# total energy = -79.04786691 eV
 
CRYSTAL
PRIMVEC
0.000273 2.042447 2.040754 
7.055452 2.069584 -0.028766 
0.017187 4.152128 -4.153584 
PRIMCOORD
12 1
Li	      0.01886      2.12754     -2.12261         0.006533      0.146447     -0.121097
Li	      2.38855      4.18032     -2.11965         0.017662     -0.106219      0.108508
Li	      4.75269      6.23463     -2.11385         0.135470     -0.018079      0.003279
Mn	      0.08558      4.16133     -4.14205        -0.578511     -0.817090      0.831358
Mn	      2.37726      2.08377     -0.02141         0.267021      0.796539     -0.519152
Mn	      4.75750      4.21953     -0.09537        -0.164761     -0.176545     -0.089417
O	      0.00477      1.96188      0.09916         0.282620      0.340162     -0.309047
O	      2.36143      4.07967      0.04459         0.053874     -0.325850      0.170952
O	      4.75745      4.12946     -2.06776        -0.048083     -0.248734      0.396929
O	      0.01371      4.23114     -2.16910         0.318108      0.342834     -0.338400
O	      2.41161      6.34429     -2.22124        -0.100590     -0.339779      0.149036
O	      4.75045      2.20443     -0.14184        -0.189343      0.406314     -0.282950
