# total energy = -78.91191493 eV
 
CRYSTAL
PRIMVEC
0.000274 2.052558 2.050857 
7.090380 2.079829 -0.028908 
0.017272 4.172683 -4.174146 
PRIMCOORD
12 1
Li	      0.01905      2.14866     -2.14368         0.003628      0.213544     -0.177447
Li	      2.41226      4.22181     -2.14069         0.023570     -0.157792      0.159760
Li	      4.79987      6.29651     -2.13483         0.203209     -0.027127      0.002465
Mn	      0.10426      0.04025     -0.00916        -0.869523     -1.196765      1.214324
Mn	      2.40085      2.10446     -0.02162         0.393693      1.178802     -0.768107
Mn	      4.80473      4.26141     -0.09632        -0.232478     -0.248862     -0.110283
O	      0.00481      1.98136      0.10014         0.407394      0.504850     -0.460688
O	      2.38487      4.12016      0.04503         0.068309     -0.463275      0.257209
O	      4.80467      4.17044     -2.08829        -0.063365     -0.372146      0.568645
O	      0.01385      4.27314     -2.19063         0.483397      0.499292     -0.487975
O	      2.43554      6.40726     -2.24329        -0.141588     -0.515311      0.223143
O	      4.79760      2.22631     -0.14325        -0.276244      0.584790     -0.421047
