# total energy = -78.21582686 eV
 
CRYSTAL
PRIMVEC
0.000278 2.082891 2.081165 
7.195164 2.110566 -0.029336 
0.017527 4.234349 -4.235833 
PRIMCOORD
12 1
Li	      0.01962      2.21263     -2.20751        -0.003826      0.391978     -0.332502
Li	      2.48408      4.34751     -2.20443         0.041962     -0.308161      0.288325
Li	      4.94279      6.48400     -2.19840         0.389963     -0.035331     -0.003272
Mn	      0.21395      0.13521     -0.07247        -1.700569     -2.183783      2.216832
Mn	      2.47234      2.16712     -0.02227         0.757674      2.271144     -1.475137
Mn	      4.94778      4.38830     -0.09919        -0.401205     -0.410754     -0.127787
O	      0.00496      2.04035      0.10312         0.703596      0.989657     -0.902951
O	      2.45588      4.24284      0.04637         0.092402     -0.804973      0.512127
O	      4.94772      4.29462     -2.15047        -0.098763     -0.700395      0.981042
O	      0.01426      4.40037     -2.25585         0.995183      0.850557     -0.811918
O	      2.50806      6.59803     -2.31008        -0.244851     -1.081486      0.437781
O	      4.94045      2.29260     -0.14751        -0.531566      1.021547     -0.782540
