# total energy = -77.89769562 eV
 
CRYSTAL
PRIMVEC
0.000280 2.093002 2.091268 
7.230092 2.120811 -0.029478 
0.017613 4.254904 -4.256395 
PRIMCOORD
12 1
Li	      0.01981      2.23417     -2.22899        -0.009551      0.443589     -0.379459
Li	      2.50826      4.38982     -2.22588         0.046635     -0.358361      0.326013
Li	      4.99089      6.54710     -2.21979         0.446117     -0.039866     -0.005679
Mn	      0.25122      0.16748     -0.09398        -1.958527     -2.450605      2.492307
Mn	      2.49640      2.18821     -0.02248         0.870128      2.620071     -1.691401
Mn	      4.99594      4.43100     -0.10015        -0.442577     -0.446664     -0.118976
O	      0.00500      2.06021      0.10412         0.774355      1.138692     -1.036293
O	      2.47978      4.28413      0.04682         0.094519     -0.887140      0.589958
O	      4.99588      4.33641     -2.17140        -0.106372     -0.799766      1.089227
O	      0.01440      4.44320     -2.27781         1.162269      0.932682     -0.883744
O	      2.53247      6.66225     -2.33256        -0.269969     -1.291248      0.506815
O	      4.98853      2.31491     -0.14895        -0.607029      1.138617     -0.888768
