# total energy = -76.73015005 eV
 
CRYSTAL
PRIMVEC
0.000284 2.123336 2.121576 
7.334876 2.151548 -0.029905 
0.017868 4.316569 -4.318082 
PRIMCOORD
12 1
Li	      0.02039      2.29940     -2.29407        -0.026832      0.568058     -0.492337
Li	      2.58149      4.51799     -2.29087         0.062601     -0.498064      0.424059
Li	      5.13660      6.73824     -2.28460         0.586703     -0.038008     -0.016826
Mn	      0.36512      0.26611     -0.15974        -2.627346     -3.043404      3.093756
Mn	      2.56929      2.25210     -0.02314         1.195827      3.648983     -2.287450
Mn	      5.14180      4.56037     -0.10308        -0.547333     -0.522222     -0.063905
O	      0.00515      2.12036      0.10716         0.919553      1.522040     -1.387308
O	      2.55218      4.40920      0.04819         0.090721     -1.066705      0.800168
O	      5.14174      4.46302     -2.23479        -0.113927     -1.056630      1.333501
O	      0.01482      4.57292     -2.34431         1.605439      1.045382     -0.967470
O	      2.60640      6.85676     -2.40066        -0.318353     -1.970682      0.714596
O	      5.13418      2.38250     -0.15330        -0.827055      1.411253     -1.150784
