# total energy = -75.78942143 eV
 
CRYSTAL
PRIMVEC
2.028048 3.969107 2.009271 
4.068673 -1.997793 -1.995716 
2.021056 1.977331 -3.997462 
PRIMCOORD
12 1
Li	      2.02558     -0.01442     -1.92162        -0.994266     -0.558077     -0.331117
Li	      5.73121      3.74117     -1.86645         0.345845      0.558216     -0.341789
Li	      5.81868      1.87060     -3.78473         0.561580      0.183980     -0.583632
Mn	      3.83128     -1.87011     -1.87268         0.079579     -5.201633      0.179300
Mn	      1.93822      1.90254      0.00300        -0.834701      0.325967      4.110498
Mn	      3.85497      1.84397     -1.87471         0.619782      0.709560     -0.712771
O	      3.83150     -0.11994     -1.90368        -0.034110      1.818805     -0.108486
O	      5.62692      1.78844     -1.95705         3.560488      1.020667     -0.338023
O	      3.72517      1.96738     -3.64980         0.807904     -0.800274     -4.044455
O	      3.94532      1.89763     -0.10635        -0.122955      0.406784      3.901486
O	      2.07318      1.83600     -1.76905        -3.809008      0.129866     -1.856878
O	      3.88620      3.88563     -2.02033        -0.180137      1.406140      0.125867
