# total energy = -76.48324365 eV
 
CRYSTAL
PRIMVEC
2.038721 3.989997 2.019846 
4.090087 -2.008307 -2.006219 
2.031693 1.987738 -4.018501 
PRIMCOORD
12 1
Li	      2.04696     -0.01457     -1.94190        -0.846253     -0.474444     -0.293924
Li	      5.79169      3.78065     -1.88615         0.278526      0.475411     -0.300560
Li	      5.88009      1.89034     -3.82467         0.505003      0.169147     -0.496091
Mn	      3.87172     -1.88984     -1.89244         0.067928     -4.582403      0.131072
Mn	      1.95867      1.92262      0.00303        -0.707787      0.285528      3.581630
Mn	      3.89565      1.86343     -1.89450         0.525186      0.632190     -0.594944
O	      3.87193     -0.12121     -1.92377        -0.070059      1.381898     -0.098727
O	      5.68631      1.80731     -1.97770         3.098381      0.923710     -0.325398
O	      3.76449      1.98814     -3.68833         0.697230     -0.658299     -3.533110
O	      3.98696      1.91765     -0.10747        -0.104654      0.385992      3.388092
O	      2.09506      1.85538     -1.78772        -3.300751      0.104587     -1.547879
O	      3.92721      3.92664     -2.04165        -0.142752      1.356683      0.089839
