# total energy = -77.08630099 eV
 
CRYSTAL
PRIMVEC
2.049395 4.010887 2.030421 
4.111501 -2.018822 -2.016723 
2.042331 1.998145 -4.039540 
PRIMCOORD
12 1
Li	      2.06845     -0.01472     -1.96229        -0.713089     -0.399874     -0.259202
Li	      5.85250      3.82034     -1.90595         0.218899      0.397975     -0.260678
Li	      5.94182      1.91019     -3.86482         0.451486      0.153050     -0.418735
Mn	      3.91236     -1.90968     -1.91231         0.060137     -3.997293      0.094562
Mn	      1.97923      1.94281      0.00306        -0.589715      0.249543      3.081642
Mn	      3.93655      1.88300     -1.91439         0.441059      0.558571     -0.492287
O	      3.91259     -0.12248     -1.94397        -0.089858      1.053037     -0.089854
O	      5.74601      1.82628     -1.99846         2.648751      0.824106     -0.305171
O	      3.80402      2.00902     -3.72705         0.598770     -0.542949     -3.042871
O	      4.02882      1.93778     -0.10860        -0.097770      0.357882      2.898437
O	      2.11706      1.87486     -1.80649        -2.817827      0.081928     -1.275315
O	      3.96845      3.96787     -2.06308        -0.110844      1.264025      0.069472
