# total energy = -77.60273644 eV
 
CRYSTAL
PRIMVEC
2.060069 4.031777 2.040996 
4.132916 -2.029337 -2.027227 
2.052968 2.008552 -4.060579 
PRIMCOORD
12 1
Li	      2.09005     -0.01488     -1.98278        -0.592666     -0.330990     -0.222890
Li	      5.91362      3.86025     -1.92585         0.168714      0.330112     -0.224749
Li	      6.00388      1.93014     -3.90519         0.396431      0.129812     -0.342551
Mn	      3.95323     -1.92963     -1.93228         0.050828     -3.436636      0.065514
Mn	      1.99990      1.96310      0.00309        -0.480287      0.211754      2.608984
Mn	      3.97766      1.90266     -1.93438         0.365712      0.484322     -0.406035
O	      3.95345     -0.12376     -1.96427        -0.103500      0.792861     -0.078229
O	      5.80602      1.84536     -2.01934         2.229327      0.727784     -0.281852
O	      3.84374      2.03000     -3.76597         0.509952     -0.444307     -2.576085
O	      4.07089      1.95802     -0.10973        -0.090820      0.325993      2.436558
O	      2.13917      1.89444     -1.82536        -2.368288      0.063362     -1.029682
O	      4.00989      4.00931     -2.08463        -0.085404      1.145933      0.051017
