# total energy = -78.39481128 eV
 
CRYSTAL
PRIMVEC
2.081417 4.073557 2.062147 
4.175744 -2.050366 -2.048234 
2.074242 2.029366 -4.102658 
PRIMCOORD
12 1
Li	      2.13360     -0.01519     -2.02409        -0.379998     -0.215997     -0.152394
Li	      6.03682      3.94066     -1.96597         0.088232      0.208819     -0.155628
Li	      6.12896      1.97035     -3.98655         0.291277      0.092971     -0.218758
Mn	      4.03558     -1.96983     -1.97254         0.031727     -2.384067      0.026497
Mn	      2.04157      2.00399      0.00316        -0.298158      0.145068      1.746478
Mn	      4.06053      1.94230     -1.97468         0.228106      0.341432     -0.257834
O	      4.03581     -0.12634     -2.00519        -0.104170      0.416676     -0.060859
O	      5.92697      1.88380     -2.06140         1.471348      0.521979     -0.220953
O	      3.92382      2.07229     -3.84443         0.350192     -0.281586     -1.718250
O	      4.15570      1.99881     -0.11202        -0.078591      0.245425      1.608706
O	      2.18373      1.93391     -1.86338        -1.554982      0.031988     -0.620286
O	      4.09343      4.09283     -2.12806        -0.044984      0.877291      0.023281
