# total energy = -78.67920148 eV
 
CRYSTAL
PRIMVEC
2.092091 4.094447 2.072722 
4.197158 -2.060881 -2.058738 
2.084879 2.039773 -4.123697 
PRIMCOORD
12 1
Li	      2.15554     -0.01534     -2.04490        -0.286701     -0.165922     -0.117407
Li	      6.09889      3.98118     -1.98619         0.060260      0.157281     -0.125804
Li	      6.19198      1.99061     -4.02753         0.233747      0.073236     -0.165018
Mn	      4.07708     -1.99008     -1.99282         0.026185     -1.885306      0.014901
Mn	      2.06256      2.02460      0.00319        -0.220865      0.114558      1.351829
Mn	      4.10228      1.96227     -1.99499         0.166400      0.271509     -0.195366
O	      4.07731     -0.12764     -2.02581        -0.090244      0.280829     -0.049465
O	      5.98792      1.90317     -2.08260         1.125660      0.419704     -0.186458
O	      3.96417      2.09360     -3.88396         0.276639     -0.212825     -1.331530
O	      4.19843      2.01936     -0.11317        -0.068230      0.200365      1.241145
O	      2.20619      1.95379     -1.88254        -1.190860      0.023363     -0.450737
O	      4.13552      4.13492     -2.14994        -0.031988      0.723209      0.013910
