# total energy = -78.89465916 eV
 
CRYSTAL
PRIMVEC
2.102765 4.115337 2.083297 
4.218572 -2.071395 -2.069242 
2.095516 2.050180 -4.144736 
PRIMCOORD
12 1
Li	      2.17759     -0.01550     -2.06582        -0.198024     -0.118671     -0.082503
Li	      6.16128      4.02191     -2.00651         0.034507      0.110841     -0.094620
Li	      6.25532      2.01098     -4.06874         0.182056      0.055499     -0.119876
Mn	      4.11879     -2.01044     -2.01321         0.018456     -1.400682      0.007579
Mn	      2.08366      2.04531      0.00322        -0.150270      0.084571      0.977413
Mn	      4.14425      1.98234     -2.01539         0.114165      0.204197     -0.141766
O	      4.11902     -0.12895     -2.04654        -0.073289      0.175982     -0.037515
O	      6.04917      1.92264     -2.10390         0.811420      0.316229     -0.147381
O	      4.00472      2.11501     -3.92369         0.205903     -0.150491     -0.971320
O	      4.24139      2.04002     -0.11434        -0.059762      0.147686      0.902848
O	      2.22875      1.97378     -1.90180        -0.859387      0.016047     -0.301875
O	      4.17783      4.17722     -2.17194        -0.025775      0.558792      0.009016
