# total energy = -79.13521901 eV
 
CRYSTAL
PRIMVEC
2.124113 4.157117 2.104447 
4.261400 -2.092425 -2.090250 
2.116791 2.070994 -4.186815 
PRIMCOORD
12 1
Li	      2.22203     -0.01581     -2.10798        -0.050835     -0.038480     -0.016674
Li	      6.28702      4.10399     -2.04746         0.002666      0.025867     -0.040263
Li	      6.38298      2.05201     -4.15177         0.074507      0.019123     -0.029568
Mn	      4.20285     -2.05147     -2.05429         0.004925     -0.462615      0.004611
Mn	      2.12618      2.08705      0.00329        -0.032872      0.032246      0.290934
Mn	      4.22882      2.02280     -2.05652         0.014326      0.071518     -0.046639
O	      4.20308     -0.13158     -2.08830        -0.024448      0.031456     -0.012313
O	      6.17262      1.96188     -2.14684         0.257708      0.106874     -0.055772
O	      4.08645      2.15818     -4.00377         0.076955     -0.049140     -0.325946
O	      4.32794      2.08166     -0.11667        -0.025108      0.047888      0.296239
O	      2.27424      2.01406     -1.94061        -0.276194      0.004803     -0.065288
O	      4.26309      4.26246     -2.21626        -0.021631      0.210460      0.000680
