# total energy = -91.19216091 eV
 
CRYSTAL
PRIMVEC
-0.000457 2.078792 2.084106 
6.099678 0.044338 -2.127623 
-1.988211 6.322995 -4.248768 
PRIMCOORD
16 1
Li	      2.15219      2.14716     -0.08579         0.037516     -0.033487      0.058376
Li	      3.93075      2.02335     -2.01676         0.002930     -0.035029      0.026102
Li	      2.08657      4.17095     -2.08523         0.023960      0.024130     -0.041393
Li	      1.97340      6.38335     -4.31165        -0.001965      0.012110     -0.006434
Mn	      6.05913      2.17862     -0.09624        -0.032830      0.005592     -0.008623
Mn	      4.00086      4.24890     -4.25677        -0.101072      0.002983      0.007480
Ni	      0.09533      4.20391     -0.04831        -0.124132     -0.027687      0.044270
Ni	      0.14439      6.32532     -2.16524         0.061115     -0.013212      0.004613
O	     -0.09871      4.21820     -2.14179        -0.024211     -0.008875      0.003251
O	      0.00372      2.05484      0.02885         0.004145     -0.049192      0.033104
O	      4.11633      6.30950     -4.23319        -0.097040     -0.053854      0.054003
O	      4.14007      4.39358     -2.32192        -0.090214      0.031644     -0.030125
O	     -0.07441      6.25148     -4.17123        -0.057398      0.136909     -0.131476
O	      4.22273      2.13365     -0.04966         0.000667      0.005352     -0.014274
O	      2.16051      6.33329     -2.17629         0.211381     -0.013082      0.012408
O	      2.00063      2.11235     -2.11945         0.187147      0.015696     -0.011282
