# total energy = -79.14780270 eV
 
CRYSTAL
PRIMVEC
2.145461 4.198898 2.125597 
4.304228 -2.113454 -2.111257 
2.138065 2.091808 -4.228894 
PRIMCOORD
12 1
Li	      2.26692     -0.01613     -2.15057         0.068639      0.028384      0.046954
Li	      6.41403      4.18690     -2.08882        -0.008601     -0.042488      0.001141
Li	      6.51193      2.09347     -4.23565        -0.034397     -0.013400      0.038784
Mn	      4.28775     -2.09292     -2.09579        -0.007029      0.457578      0.020685
Mn	      2.16914      2.12922      0.00336         0.055675     -0.021312     -0.321207
Mn	      4.31425      2.06367     -2.09807        -0.067357     -0.049271      0.027503
O	      4.28799     -0.13424     -2.13049         0.044036     -0.034807      0.013042
O	      6.29732      2.00151     -2.19021        -0.206351     -0.104684      0.038076
O	      4.16900      2.20177     -4.08465        -0.043681      0.027000      0.223180
O	      4.41538      2.12371     -0.11902         0.017051     -0.055823     -0.199827
O	      2.32018      2.05475     -1.97981         0.209050     -0.002126      0.112722
O	      4.34921      4.34857     -2.26103        -0.027034     -0.189051     -0.001051
