# total energy = -79.07636520 eV
 
CRYSTAL
PRIMVEC
2.156135 4.219788 2.136172 
4.325642 -2.123969 -2.121761 
2.148702 2.102215 -4.249933 
PRIMCOORD
12 1
Li	      2.28953     -0.01629     -2.17202         0.118773      0.054867      0.079252
Li	      4.32187      0.00887     -4.24583        -0.009713     -0.069292      0.022677
Li	      6.57688      2.11435     -4.27789        -0.087596     -0.030105      0.068528
Mn	      4.33052     -2.11379     -2.11670        -0.011120      0.922239      0.032739
Mn	      2.19077      2.15046      0.00339         0.094067     -0.045956     -0.606658
Mn	      4.35729      2.08425     -2.11900        -0.102977     -0.106952      0.060081
O	      4.33076     -0.13557     -2.15174         0.080231     -0.051490      0.029708
O	      6.36014      2.02147     -2.21206        -0.401135     -0.211042      0.086986
O	      4.21058      2.22374     -4.12539        -0.100842      0.060540      0.465885
O	      4.45942      2.14489     -0.12021         0.039839     -0.104969     -0.414257
O	      2.34333      2.07524     -1.99957         0.414882     -0.002922      0.178262
O	      4.39259      4.39195     -2.28358        -0.034409     -0.414919     -0.003204
