# total energy = -78.95721542 eV
 
CRYSTAL
PRIMVEC
2.166809 4.240678 2.146748 
4.347056 -2.134484 -2.132265 
2.159339 2.112622 -4.270972 
PRIMCOORD
12 1
Li	      2.31225     -0.01645     -2.19358         0.163205      0.080676      0.112693
Li	      4.37549      0.02995     -4.27735        -0.006586     -0.095802      0.040799
Li	      6.64216      2.13534     -4.32036        -0.143236     -0.046574      0.098070
Mn	      0.02644     -0.00029     -0.00544        -0.016361      1.396710      0.050079
Mn	      2.21252      2.17180      0.00343         0.126744     -0.071717     -0.876595
Mn	      4.40054      2.10494     -2.14003        -0.134720     -0.162144      0.085845
O	      4.37375     -0.13692     -2.17310         0.121235     -0.057186      0.046998
O	      6.42326      2.04154     -2.23401        -0.576711     -0.315886      0.138960
O	      4.25237      2.24581     -4.16633        -0.155780      0.090667      0.688817
O	      4.50368      2.16618     -0.12141         0.063924     -0.156519     -0.608893
O	      2.36659      2.09584     -2.01941         0.598434     -0.003585      0.231034
O	      4.43619      4.43554     -2.30625        -0.040147     -0.658639     -0.007806
