# total energy = -78.79330076 eV
 
CRYSTAL
PRIMVEC
2.177483 4.261568 2.157323 
4.368470 -2.144998 -2.142768 
2.169976 2.123029 -4.292011 
PRIMCOORD
12 1
Li	      2.33509     -0.01662     -2.21524         0.200535      0.102769      0.148000
Li	      4.42944      0.05124     -4.30896         0.000351     -0.120323      0.054291
Li	      6.70776      2.15643     -4.36302        -0.201058     -0.062446      0.125307
Mn	      0.04822     -0.01086     -0.01605        -0.023836      1.881584      0.074585
Mn	      2.23437      2.19325      0.00345         0.153427     -0.098700     -1.134677
Mn	      4.44400      2.12573     -2.16117        -0.162601     -0.214451      0.108020
O	      4.41694     -0.13827     -2.19455         0.170617     -0.054470      0.061368
O	      6.48670      2.06170     -2.25608        -0.728416     -0.419627      0.190986
O	      4.29438      2.26799     -4.20749        -0.200534      0.120302      0.885965
O	      4.54816      2.18758     -0.12260         0.089417     -0.207668     -0.776838
O	      2.38996      2.11654     -2.03936         0.757579      0.000053      0.271937
O	      4.48001      4.47935     -2.32903        -0.055483     -0.927024     -0.008945
