# total energy = -78.58690206 eV
 
CRYSTAL
PRIMVEC
2.188157 4.282458 2.167898 
4.389884 -2.155513 -2.153272 
2.180613 2.133436 -4.313051 
PRIMCOORD
12 1
Li	      2.35804     -0.01678     -2.23701         0.235129      0.119482      0.179567
Li	      4.48369      0.07274     -4.34068         0.009608     -0.139219      0.066389
Li	      6.77369      2.17762     -4.40590        -0.257429     -0.077048      0.148084
Mn	      0.07022     -0.02153     -0.02676        -0.032228      2.386534      0.101022
Mn	      2.25633      2.21480      0.00349         0.177831     -0.125322     -1.382236
Mn	      4.48767      2.14662     -2.18241        -0.187101     -0.264527      0.126811
O	      4.46035     -0.13963     -2.21613         0.218619     -0.039023      0.077656
O	      6.55046      2.08196     -2.27825        -0.863443     -0.516182      0.247491
O	      4.33658      2.29028     -4.24884        -0.253404      0.136675      1.065154
O	      4.59286      2.20908     -0.12381         0.116732     -0.258424     -0.924778
O	      2.41345      2.13734     -2.05940         0.901055      0.001431      0.300811
O	      4.52403      4.52337     -2.35192        -0.065368     -1.224376     -0.005971
