# total energy = -78.34008175 eV
 
CRYSTAL
PRIMVEC
2.198831 4.303348 2.178473 
4.411298 -2.166028 -2.163776 
2.191250 2.143843 -4.334090 
PRIMCOORD
12 1
Li	      2.38110     -0.01695     -2.25889         0.267389      0.136038      0.210195
Li	      4.53827      0.09444     -4.37251         0.023774     -0.158154      0.076602
Li	      6.83994      2.19892     -4.44899        -0.314150     -0.089175      0.169873
Mn	      0.09242     -0.03231     -0.03758        -0.040991      2.913962      0.136599
Mn	      2.27839      2.23646      0.00353         0.201077     -0.153343     -1.615746
Mn	      4.53156      2.16761     -2.20375        -0.208801     -0.313647      0.140361
O	      4.50397     -0.14100     -2.23780         0.267345     -0.014909      0.097776
O	      6.61451      2.10232     -2.30053        -0.984161     -0.619250      0.301493
O	      4.37899      2.31268     -4.29039        -0.299916      0.155857      1.223162
O	      4.63778      2.23068     -0.12502         0.140581     -0.306417     -1.050222
O	      2.43705      2.15825     -2.07954         1.022189      0.002469      0.322141
O	      4.56828      4.56761     -2.37492        -0.074336     -1.553432     -0.012234
