# total energy = -78.05463328 eV
 
CRYSTAL
PRIMVEC
2.209504 4.324238 2.189048 
4.432713 -2.176542 -2.174280 
2.201888 2.154250 -4.355129 
PRIMCOORD
12 1
Li	      2.40428     -0.01711     -2.28087         0.288200      0.150222      0.242071
Li	      4.59317      0.11635     -4.40444         0.035802     -0.176355      0.083972
Li	      6.90651      2.22032     -4.49229        -0.374259     -0.105488      0.196607
Mn	      0.11484     -0.04319     -0.04850        -0.050463      3.469269      0.178390
Mn	      2.30057      2.25823      0.00356         0.219804     -0.182880     -1.841471
Mn	      4.57567      2.18871     -2.22520        -0.226920     -0.357952      0.150301
O	      4.54781     -0.14237     -2.25958         0.322047      0.015280      0.116666
O	      6.67889      2.12278     -2.32292        -1.075857     -0.715650      0.352338
O	      4.42161      2.33519     -4.33214        -0.343969      0.172455      1.363390
O	      4.68291      2.25239     -0.12624         0.164494     -0.353212     -1.158453
O	      2.46077      2.17925     -2.09978         1.124708      0.005797      0.336205
O	      4.61274      4.61207     -2.39803        -0.083587     -1.921487     -0.020016
