# total energy = -77.73220958 eV
 
CRYSTAL
PRIMVEC
2.220178 4.345128 2.199623 
4.454127 -2.187057 -2.184783 
2.212525 2.164657 -4.376168 
PRIMCOORD
12 1
Li	      2.42756     -0.01728     -2.30297         0.304245      0.160885      0.274657
Li	      4.64838      0.13847     -4.43647         0.054366     -0.190710      0.088682
Li	      6.97339      2.24182     -4.53580        -0.433925     -0.118835      0.216324
Mn	      0.13747     -0.05417     -0.05952        -0.062052      4.057940      0.227476
Mn	      2.32285      2.28010      0.00359         0.236401     -0.216996     -2.061804
Mn	      4.61998      2.20991     -2.24675        -0.241993     -0.396516      0.156855
O	      4.59185     -0.14375     -2.28146         0.384973      0.050398      0.137774
O	      6.74358      2.14335     -2.34542        -1.153945     -0.813472      0.411790
O	      4.46443      2.35780     -4.37410        -0.387593      0.183207      1.479986
O	      4.72827      2.27421     -0.12745         0.188515     -0.398724     -1.246771
O	      2.48461      2.20036     -2.12012         1.202653      0.011345      0.341461
O	      4.65741      4.65673     -2.42126        -0.091645     -2.328522     -0.026430
