# total energy = -87.58284220 eV
 
CRYSTAL
PRIMVEC
-0.000205 2.099059 -2.099019 
-0.000969 2.099058 2.099016 
17.455377 -0.004466 -0.004047 
PRIMCOORD
16 1
Li	      4.66019      2.09862     -2.09730         0.026193     -0.000164     -0.000820
Li	      6.75578      2.09798     -0.00013         0.012054     -0.000606      0.000199
Li	      8.72599      4.19226     -0.00340        -0.028519      0.003668      0.001914
Li	     10.68097      2.09099     -0.00459        -0.089912      0.001262      0.000311
Mn	     17.40782      4.19169     -0.00290         0.012203     -0.000445     -0.000239
Mn	      2.40448      2.09771      0.00144         0.218501      0.000024      0.000244
Ni	     12.84555      4.19090     -0.00396         0.166632     -0.000545     -0.000476
Ni	     15.08887      2.09233     -0.00341         0.122907     -0.000198     -0.000466
O	     15.32215      4.19137     -0.00338        -0.001201     -0.001014     -0.000418
O	      0.11174      2.09715      0.00117         0.078633     -0.001012     -0.000396
O	     10.93614      4.19014     -0.00461        -0.308447     -0.000484      0.000004
O	     13.13068      2.09181     -0.00395        -0.093473      0.001102      0.000099
O	      6.60973      2.09814     -2.09892         0.070616      0.000262      0.000237
O	      8.69739      2.09261     -0.00383         0.019138     -0.001975     -0.000362
O	      2.10320      2.09761     -2.09759         0.073001     -0.000224     -0.000197
O	      4.18188      2.09822      0.00164        -0.278325      0.000348      0.000366
