# total energy = -102.11246758 eV
 
CRYSTAL
PRIMVEC
2.007028 4.047771 1.979911 
4.053168 -2.035376 -1.997319 
0.006256 4.040778 -3.952760 
PRIMCOORD
16 1
Li	      3.83740      2.02903     -1.89469         0.304661     -0.758333     -0.194066
Li	      1.93448      3.77605     -1.98248        -0.033112      0.592924      0.312918
Li	      1.97397      1.91978     -3.78219        -0.866141     -0.025650     -0.281200
Li	      3.80417      3.78673     -3.73042         0.556309      0.300612     -0.264133
Mn	      3.84661      1.88563     -5.62265         0.486034     -0.932928     -4.437542
Mn	      1.92404      1.91324      0.02372        -1.863758      0.012379      3.565488
Mn	      1.95509      0.00371     -1.87593        -1.280806     -3.291240      1.031867
Mn	      5.72476      3.82693     -1.93125         3.424497     -0.024254     -0.860233
O	      1.82793      1.81450     -1.80593        -0.446732      1.552313     -1.806320
O	      3.94103      3.86845     -1.77057        -1.929457      1.031318     -0.992198
O	      1.98899      3.82535     -3.85632        -0.945764      0.673938     -0.676271
O	      3.71129      2.08496     -0.02055         2.811940     -0.275124      1.020333
O	      3.95215     -0.16216     -1.83315         1.065231     -0.605232      0.394855
O	      1.84772      3.95129      0.09884        -1.004824      0.578259      1.234562
O	      3.89334      1.74734     -3.88545        -0.057627     -0.033127      1.858108
O	      1.87515      5.89315     -1.95716        -0.220450      1.204144      0.093832
