# total energy = -102.77619607 eV
 
CRYSTAL
PRIMVEC
2.017591 4.069076 1.990332 
4.074501 -2.046089 -2.007831 
0.006289 4.062045 -3.973564 
PRIMCOORD
16 1
Li	      3.87790      2.05045     -1.91469         0.255665     -0.659759     -0.164692
Li	      1.95490      3.81591     -2.00341        -0.015150      0.516244      0.269955
Li	      1.99481      1.94004     -3.82210        -0.755669     -0.008475     -0.241697
Li	      3.84432      3.82670     -3.76979         0.475058      0.254363     -0.222983
Mn	      3.88721      1.90553     -5.68199         0.426687     -0.892357     -3.896686
Mn	      1.94434      1.93343      0.02397        -1.563173      0.052076      3.059785
Mn	      1.97572      0.00375     -1.89573        -1.102166     -2.862735      0.918158
Mn	      5.78518      3.86732     -1.95164         2.957537     -0.015836     -0.743886
O	      1.84722      1.83365     -1.82500        -0.373628      1.311883     -1.528511
O	      3.98263      3.90927     -1.78926        -1.622958      0.902651     -0.889900
O	      2.00998      3.86572     -3.89702        -0.805148      0.584665     -0.578242
O	      3.75045      2.10697     -0.02076         2.404614     -0.245804      0.882670
O	      3.99386     -0.16387     -1.85250         0.897047     -0.551844      0.349578
O	      1.86722      3.99299      0.09989        -0.893205      0.520649      1.136847
O	      3.93443      1.76578     -3.92645        -0.088821     -0.013706      1.541038
O	      1.89494      5.95535     -1.97782        -0.196689      1.107984      0.108566
