# total energy = -103.84259066 eV
 
CRYSTAL
PRIMVEC
2.038717 4.111684 2.011173 
4.117166 -2.067514 -2.028856 
0.006355 4.104579 -4.015172 
PRIMCOORD
16 1
Li	      3.95954      2.09361     -1.95500         0.168779     -0.478040     -0.113401
Li	      1.99605      3.89624     -2.04558         0.012157      0.372865      0.188496
Li	      2.03680      1.98089     -3.90257        -0.549524      0.016690     -0.173712
Li	      3.92524      3.90726     -3.84915         0.329906      0.169776     -0.152435
Mn	      3.96904      1.94564     -5.80161         0.311926     -0.774013     -2.913583
Mn	      1.98527      1.97414      0.02447        -1.048620      0.103526      2.168490
Mn	      2.01731      0.00383     -1.93564        -0.785458     -2.080234      0.696777
Mn	      5.90697      3.94874     -1.99272         2.111163     -0.004671     -0.535067
O	      1.88611      1.87225     -1.86341        -0.250742      0.891145     -1.035390
O	      4.06647      3.99158     -1.82693        -1.094294      0.661172     -0.680055
O	      2.05229      3.94710     -3.97906        -0.563018      0.420981     -0.414989
O	      3.82941      2.15133     -0.02120         1.685082     -0.185523      0.634124
O	      4.07794     -0.16732     -1.89150         0.605086     -0.439478      0.257051
O	      1.90653      4.07705      0.10199        -0.665003      0.402756      0.933555
O	      4.01726      1.80295     -4.00911        -0.118515      0.014126      1.019798
O	      1.93483      6.08072     -2.01945        -0.148924      0.908923      0.120341
