# total energy = -104.25579338 eV
 
CRYSTAL
PRIMVEC
2.049281 4.132988 2.021594 
4.138498 -2.078226 -2.039368 
0.006388 4.125847 -4.035976 
PRIMCOORD
16 1
Li	      4.00067      2.11536     -1.97531         0.137554     -0.394831     -0.095965
Li	      2.01679      3.93672     -2.06684         0.021609      0.309532      0.154893
Li	      2.05796      2.00147     -3.94311        -0.452654      0.024084     -0.145600
Li	      3.96603      3.94785     -3.88914         0.267806      0.131479     -0.123388
Mn	      4.01027      1.96586     -5.86189         0.257192     -0.699777     -2.455647
Mn	      2.00590      1.99465      0.02473        -0.832522      0.114062      1.773633
Mn	      2.03827      0.00387     -1.95575        -0.645760     -1.724710      0.587687
Mn	      5.96834      3.98976     -2.01343         1.732903      0.002616     -0.440696
O	      1.90571      1.89170     -1.88277        -0.203205      0.714143     -0.827168
O	      4.10872      4.03305     -1.84591        -0.870659      0.551637     -0.577218
O	      2.07362      3.98811     -4.02040        -0.456440      0.346700     -0.339798
O	      3.86920      2.17368     -0.02142         1.369804     -0.156140      0.527381
O	      4.12030     -0.16906     -1.91115         0.484661     -0.380742      0.212808
O	      1.92634      4.11942      0.10305        -0.558306      0.347600      0.821691
O	      4.05900      1.82168     -4.05077        -0.123285      0.014596      0.809186
O	      1.95494      6.14390     -2.04043        -0.128698      0.799752      0.118201
