# total energy = -104.59562750 eV
 
CRYSTAL
PRIMVEC
2.059844 4.154292 2.032014 
4.159830 -2.088939 -2.049880 
0.006421 4.147114 -4.056780 
PRIMCOORD
16 1
Li	      4.04202      2.13723     -1.99573         0.101055     -0.316598     -0.074372
Li	      2.03764      3.97741     -2.08820         0.025920      0.247243      0.121193
Li	      2.07923      2.02216     -3.98387        -0.367733      0.025245     -0.117980
Li	      4.00702      3.98866     -3.92934         0.216492      0.100127     -0.097790
Mn	      4.05172      1.98618     -5.92248         0.206036     -0.615037     -2.016357
Mn	      2.02663      2.01526      0.02499        -0.640190      0.114822      1.412155
Mn	      2.05934      0.00391     -1.97596        -0.516521     -1.389063      0.480904
Mn	      6.03003      4.03100     -2.03423         1.386111      0.003108     -0.354200
O	      1.92540      1.91126     -1.90223        -0.156996      0.555527     -0.638401
O	      4.15119      4.07473     -1.86499        -0.672632      0.446867     -0.477570
O	      2.09505      4.02933     -4.06195        -0.361274      0.278755     -0.266744
O	      3.90919      2.19614     -0.02164         1.085191     -0.124378      0.423099
O	      4.16289     -0.17081     -1.93090         0.374483     -0.322554      0.171130
O	      1.94625      4.16199      0.10411        -0.455923      0.291036      0.704943
O	      4.10095      1.84051     -4.09263        -0.120606      0.019813      0.621245
O	      1.97514      6.20740     -2.06152        -0.103412      0.685086      0.108745
