# total energy = -104.86597744 eV
 
CRYSTAL
PRIMVEC
2.070407 4.175596 2.042435 
4.181163 -2.099651 -2.060392 
0.006454 4.168381 -4.077584 
PRIMCOORD
16 1
Li	      4.08358      2.15920     -2.01625         0.074242     -0.245757     -0.058663
Li	      2.05859      4.01831     -2.10967         0.026253      0.186688      0.093422
Li	      2.10061      2.04294     -4.02483        -0.283796      0.022884     -0.092224
Li	      4.04822      4.02967     -3.96975         0.163424      0.072579     -0.074697
Mn	      4.09339      2.00660     -5.98337         0.154441     -0.516318     -1.591456
Mn	      2.04747      2.03599      0.02524        -0.471528      0.108728      1.081743
Mn	      2.08051      0.00395     -1.99628        -0.392884     -1.076658      0.375386
Mn	      6.09203      4.07245     -2.05515         1.061432      0.007573     -0.272401
O	      1.94521      1.93091     -1.92180        -0.120767      0.417962     -0.472828
O	      4.19387      4.11663     -1.88416        -0.493623      0.350329     -0.375225
O	      2.11659      4.07076     -4.10372        -0.274600      0.213166     -0.203928
O	      3.94939      2.21873     -0.02186         0.815214     -0.104816      0.329169
O	      4.20570     -0.17256     -1.95075         0.286561     -0.257984      0.132405
O	      1.96626      4.20479      0.10518        -0.354911      0.237274      0.581412
O	      4.14312      1.85943     -4.13472        -0.110602      0.017197      0.456524
O	      1.99545      6.27123     -2.08272        -0.078856      0.567153      0.091361
