# total energy = -105.07182885 eV
 
CRYSTAL
PRIMVEC
2.080971 4.196900 2.052855 
4.202495 -2.110364 -2.070905 
0.006487 4.189648 -4.098388 
PRIMCOORD
16 1
Li	      4.12536      2.18129     -2.03687         0.051713     -0.176527     -0.046409
Li	      2.07965      4.05941     -2.13126         0.026229      0.131014      0.066740
Li	      2.12210      2.06385     -4.06601        -0.207210      0.019117     -0.068585
Li	      4.08963      4.07089     -4.01035         0.121247      0.047582     -0.051520
Mn	      4.13526      2.02712     -6.04459         0.108229     -0.411198     -1.178488
Mn	      2.06842      2.05681      0.02550        -0.325521      0.093800      0.779852
Mn	      2.10180      0.00399     -2.01670        -0.280289     -0.784007      0.275438
Mn	      6.15435      4.11411     -2.07618         0.760491      0.011776     -0.195463
O	      1.96510      1.95066     -1.94145        -0.084771      0.298771     -0.327336
O	      4.23678      4.15874     -1.90344        -0.348193      0.253443     -0.278811
O	      2.13824      4.11241     -4.14570        -0.193459      0.146148     -0.148488
O	      3.98979      2.24142     -0.02209         0.577059     -0.078814      0.240224
O	      4.24872     -0.17433     -1.97071         0.205718     -0.193388      0.099194
O	      1.98638      4.24781      0.10626        -0.261916      0.187673      0.450685
O	      4.18550      1.87846     -4.17702        -0.092285      0.013858      0.315434
O	      2.01587      6.33539     -2.10403        -0.057042      0.440752      0.067534
