# total energy = -105.21586310 eV
 
CRYSTAL
PRIMVEC
2.091534 4.218204 2.063276 
4.223828 -2.121076 -2.081417 
0.006520 4.210916 -4.119192 
PRIMCOORD
16 1
Li	      4.16735      2.20350     -2.05761         0.026398     -0.113495     -0.038393
Li	      2.10081      4.10073     -2.15294         0.026460      0.078451      0.041598
Li	      2.14370      2.08486     -4.10739        -0.133617      0.012801     -0.042973
Li	      4.13126      4.11233     -4.05117         0.078665      0.025073     -0.032624
Mn	      4.17735      2.04776     -6.10611         0.064917     -0.293068     -0.776613
Mn	      2.08947      2.07775      0.02576        -0.197294      0.074387      0.504654
Mn	      2.12319      0.00403     -2.03723        -0.175528     -0.506455      0.176849
Mn	      6.21699      4.15599     -2.09731         0.482546      0.011282     -0.125956
O	      1.98511      1.97052     -1.96121        -0.055322      0.195326     -0.198990
O	      4.27990      4.20107     -1.92281        -0.218965      0.166262     -0.179364
O	      2.16001      4.15427     -4.18790        -0.121298      0.088254     -0.091816
O	      4.03039      2.26424     -0.02231         0.354551     -0.052154      0.157138
O	      4.29197     -0.17610     -1.99077         0.139965     -0.131434      0.066036
O	      2.00660      4.29104      0.10734        -0.174494      0.140930      0.308129
O	      4.22810      1.89758     -4.21953        -0.064888      0.003348      0.193790
O	      2.03638      6.39987     -2.12544        -0.032097      0.300492      0.038535
