# total energy = -105.30195732 eV
 
CRYSTAL
PRIMVEC
2.102097 4.239508 2.073696 
4.245160 -2.131789 -2.091929 
0.006553 4.232183 -4.139996 
PRIMCOORD
16 1
Li	      4.20955      2.22581     -2.07844         0.008948     -0.053435     -0.025748
Li	      2.12209      4.14226     -2.17475         0.022100      0.029462      0.017277
Li	      2.16541      2.10597     -4.14899        -0.065065      0.005737     -0.021977
Li	      4.17310      4.15397     -4.09220         0.042596      0.005143     -0.016693
Mn	      4.21966      2.06849     -6.16794         0.024998     -0.164063     -0.379096
Mn	      2.11063      2.09879      0.02602        -0.089210      0.046645      0.253234
Mn	      2.14469      0.00407     -2.05786        -0.078197     -0.247085      0.080795
Mn	      6.27995      4.19807     -2.11855         0.225810      0.011967     -0.065571
O	      2.00521      1.99048     -1.98108        -0.029308      0.108911     -0.083899
O	      4.32324      4.24361     -1.94228        -0.106501      0.079765     -0.082204
O	      2.18188      4.19633     -4.23031        -0.052038      0.031766     -0.040259
O	      4.07121      2.28716     -0.02254         0.155940     -0.027737      0.079758
O	      4.33543     -0.17789     -2.01093         0.082761     -0.066042      0.035417
O	      2.02691      4.33449      0.10843        -0.097389      0.092436      0.158064
O	      4.27092      1.91679     -4.26226        -0.035225     -0.007896      0.088324
O	      2.05700      6.46467     -2.14697        -0.010222      0.154426      0.002579
