# total energy = -105.31322168 eV
 
CRYSTAL
PRIMVEC
2.123224 4.282116 2.094538 
4.287825 -2.153214 -2.112953 
0.006618 4.274717 -4.181604 
PRIMCOORD
16 1
Li	      4.29459      2.27077     -2.12043        -0.022343      0.050184     -0.015547
Li	      2.16495      4.22594     -2.21868         0.006645     -0.064878     -0.024203
Li	      2.20915      2.14851     -4.23280         0.061756     -0.016625      0.024497
Li	      4.25740      4.23789     -4.17487        -0.014782     -0.026300      0.012244
Mn	      0.01707      4.26350     -4.17959        -0.040526      0.131956      0.406064
Mn	      2.15327      2.14119      0.02655         0.077205     -0.032010     -0.186721
Mn	      2.18802      0.00415     -2.09943         0.104002      0.222006     -0.097235
Mn	      2.11899      6.43609     -0.04839        -0.238303      0.013112      0.044546
O	      2.04571      2.03069     -2.02110         0.019897     -0.028037      0.088262
O	      4.41058      4.32934     -1.98152         0.066052     -0.079308      0.098195
O	      2.22596      4.28110     -4.31576         0.062183     -0.068680      0.042424
O	      4.15345      2.33337     -0.02299        -0.189395      0.008968     -0.059787
O	      4.42301     -0.18148     -2.05155        -0.002222      0.075672     -0.010486
O	      2.06786      4.42206      0.11062         0.046585     -0.001602     -0.183575
O	      4.35720      1.95552     -4.34836         0.031199     -0.024367     -0.064524
O	      2.09856      6.59527     -2.19034         0.032050     -0.160092     -0.074154
