# total energy = -92.24796997 eV
 
CRYSTAL
PRIMVEC
-0.000080 2.061561 2.062103 
8.225562 -4.209835 4.209936 
2.048718 2.118714 -4.180990 
PRIMCOORD
16 1
Li	      2.14446      2.02195      0.04472        -0.003411      0.004487     -0.007570
Li	      4.05890      2.04115     -2.03843        -0.026800     -0.032989      0.032339
Li	      3.94402     -1.99611      1.99453        -0.046689      0.041054     -0.036844
Li	      8.30829     -2.10427      2.10693         0.030741     -0.012903      0.006629
Mn	      0.09817     -0.00713      0.01063         0.111420     -0.031876      0.027503
Mn	      6.16372     -0.04820      2.11115        -0.058923     -0.022190      0.024292
Ni	      4.03152      0.03520     -0.03390        -0.055572     -0.009560      0.009559
Ni	      6.19018     -2.12210      4.18627         0.018007      0.049684     -0.048034
O	      2.03346      2.25464     -2.25196        -0.006610      0.031034     -0.033304
O	      6.21006     -0.14649      0.14750        -0.028044     -0.052368      0.056690
O	      6.19240     -2.05131      2.05311         0.001418      0.119022     -0.124287
O	      8.19218      0.01733      2.04646        -0.025925     -0.104530      0.106301
O	      8.20711     -2.23443      4.29996         0.100197     -0.006077      0.005104
O	      1.94021      0.00750     -0.00398        -0.156882      0.001753      0.003932
O	      4.09056      2.00993      0.05341         0.027471      0.145590     -0.141933
O	      4.27089      0.00734      2.05521         0.119602     -0.120132      0.119620
