# total energy = -105.24361067 eV
 
CRYSTAL
PRIMVEC
2.133787 4.303420 2.104958 
4.309158 -2.163926 -2.123466 
0.006651 4.295985 -4.202408 
PRIMCOORD
16 1
Li	      4.33743      2.29342     -2.14158        -0.034771      0.100699     -0.011278
Li	      2.18655      4.26810     -2.24081        -0.004144     -0.108846     -0.039771
Li	      2.23119      2.16994     -4.27502         0.121800     -0.029878      0.044395
Li	      4.29987      4.28016     -4.21651        -0.041163     -0.039372      0.025893
Mn	      0.03203     -0.00073     -0.02944        -0.066483      0.297354      0.801367
Mn	      2.17475      2.16255      0.02681         0.137484     -0.080035     -0.377489
Mn	      2.20984      0.00419     -2.12037         0.189004      0.433058     -0.182651
Mn	      2.16157      6.48952     -0.05944        -0.443886      0.012222      0.094487
O	      2.06612      2.05094     -2.04125         0.039863     -0.073806      0.154330
O	      4.45457      4.37253     -2.00129         0.129293     -0.150910      0.183426
O	      2.24816      4.32381     -4.35882         0.112469     -0.110953      0.077529
O	      4.19489      2.35664     -0.02322        -0.343273      0.025809     -0.129677
O	      4.46713     -0.18329     -2.07202        -0.026398      0.147384     -0.026113
O	      2.08849      4.46617      0.11172         0.105745     -0.042739     -0.370968
O	      4.40066      1.97503     -4.39174         0.076610     -0.041497     -0.123501
O	      2.11949      6.66106     -2.21219         0.047847     -0.338490     -0.119979
