# total energy = -105.12743356 eV
 
CRYSTAL
PRIMVEC
2.144350 4.324724 2.115379 
4.330490 -2.174639 -2.133978 
0.006684 4.317252 -4.223212 
PRIMCOORD
16 1
Li	      4.38048      2.31619     -2.16284        -0.045968      0.148151     -0.007023
Li	      2.20825      4.31046     -2.26305        -0.015300     -0.150406     -0.058622
Li	      2.25333      2.19148     -4.31746         0.174661     -0.046090      0.068009
Li	      4.34254      4.32264     -4.25836        -0.061117     -0.047416      0.036778
Mn	      0.05382      0.00987     -0.06120        -0.085797      0.474610      1.199168
Mn	      2.19633      2.18401      0.02707         0.184353     -0.134781     -0.549357
Mn	      2.23177      0.00423     -2.14142         0.270817      0.633022     -0.262681
Mn	      0.06011      2.21845     -2.18597        -0.636334      0.013416      0.138977
O	      2.08663      2.07130     -2.06151         0.061043     -0.109701      0.208126
O	      4.49879      4.41593     -2.02115         0.176376     -0.223720      0.270948
O	      2.27048      4.36673     -4.40208         0.156860     -0.154867      0.111919
O	      4.23652      2.38003     -0.02345        -0.479698      0.044945     -0.193439
O	      4.51147     -0.18511     -2.09258        -0.043642      0.214569     -0.040203
O	      2.10922      4.51050      0.11283         0.153920     -0.080326     -0.578702
O	      4.44434      1.99462     -4.43533         0.125391     -0.056776     -0.164006
O	      2.14053      6.72717     -2.23415         0.064435     -0.524631     -0.179893
