# total energy = -104.96696066 eV
 
CRYSTAL
PRIMVEC
2.154914 4.346028 2.125799 
4.351823 -2.185351 -2.144490 
0.006717 4.338519 -4.244016 
PRIMCOORD
16 1
Li	      4.42374      2.33906     -2.18420        -0.053958      0.189415     -0.005521
Li	      2.23006      4.35303     -2.28540        -0.026853     -0.187237     -0.075176
Li	      2.27559      2.21313     -4.36010         0.224153     -0.064031      0.092059
Li	      4.38543      4.36534     -4.30042        -0.081775     -0.057601      0.047593
Mn	      0.07582      0.02058     -0.09327        -0.098357      0.658372      1.602332
Mn	      2.21802      2.20558      0.02734         0.218338     -0.195727     -0.706043
Mn	      2.25382      0.00428     -2.16257         0.348812      0.819118     -0.339582
Mn	      0.09276      2.25100     -2.20765        -0.815120      0.014401      0.177945
O	      2.10724      2.09176     -2.08188         0.083613     -0.135884      0.252650
O	      4.54322      4.45954     -2.04111         0.212308     -0.291437      0.351859
O	      2.29290      4.40986     -4.44556         0.198122     -0.193297      0.144229
O	      4.27836      2.40354     -0.02368        -0.604843      0.060266     -0.253647
O	      4.55603     -0.18694     -2.11325        -0.055219      0.285188     -0.052590
O	      2.13005      4.55505      0.11394         0.197829     -0.117553     -0.808003
O	      4.48823      2.01433     -4.47913         0.179053     -0.065827     -0.195000
O	      2.16167      6.79361     -2.25621         0.073897     -0.718163     -0.233106
