# total energy = -104.23628620 eV
 
CRYSTAL
PRIMVEC
2.186604 4.409941 2.157061 
4.415820 -2.217489 -2.176027 
0.006816 4.402321 -4.306428 
PRIMCOORD
16 1
Li	      4.55481      2.40837     -2.24892        -0.070890      0.300412     -0.006180
Li	      2.29614      4.48200     -2.35311        -0.070064     -0.293170     -0.113499
Li	      2.34301      2.27869     -4.48928         0.366573     -0.119267      0.164857
Li	      4.51537      4.49467     -4.42783        -0.122547     -0.072550      0.073665
Mn	      0.14311      0.05332     -0.19137        -0.082024      1.277433      2.878691
Mn	      2.28374      2.27093      0.02815         0.263408     -0.407650     -1.096415
Mn	      2.32060      0.00440     -2.22664         0.570970      1.308622     -0.540623
Mn	      0.19260      2.34994     -2.27334        -1.291957      0.021421      0.274521
O	      2.16967      2.15373     -2.14356         0.154906     -0.151354      0.333973
O	      4.67782      4.59167     -2.10159         0.247570     -0.475626      0.570670
O	      2.36083      4.54051     -4.57727         0.302281     -0.298884      0.205300
O	      4.40512      2.47475     -0.02439        -0.913274      0.101561     -0.423391
O	      4.69101     -0.19247     -2.17586        -0.056675      0.500312     -0.057029
O	      2.19316      4.69000      0.11732         0.264367     -0.207255     -1.627659
O	      4.62121      2.07401     -4.61184         0.349313     -0.106758     -0.215589
O	      2.22571      6.99489     -2.32306         0.088042     -1.377249     -0.421292
