# total energy = -103.91523556 eV
 
CRYSTAL
PRIMVEC
2.197167 4.431245 2.167482 
4.437153 -2.228201 -2.186539 
0.006849 4.423588 -4.327232 
PRIMCOORD
16 1
Li	      4.59893      2.43169     -2.27069        -0.075741      0.333512     -0.006448
Li	      2.31837      4.52541     -2.37591        -0.086408     -0.326236     -0.124734
Li	      2.36571      2.30076     -4.53276         0.408424     -0.140327      0.194816
Li	      4.55910      4.53821     -4.47072        -0.134659     -0.074968      0.078432
Mn	      0.16596      0.06444     -0.22469        -0.057498      1.496622      3.334935
Mn	      2.30586      2.29292      0.02843         0.260329     -0.486326     -1.204105
Mn	      2.34307      0.00445     -2.24821         0.640154      1.449715     -0.597950
Mn	      0.22651      2.38334     -2.29545        -1.432956      0.025656      0.299398
O	      2.19068      2.17458     -2.16432         0.181078     -0.142112      0.341984
O	      4.72313      4.63614     -2.12194         0.246983     -0.526993      0.632953
O	      2.38370      4.58448     -4.62160         0.332062     -0.328965      0.222120
O	      4.44778      2.49872     -0.02462        -0.994361      0.113883     -0.476452
O	      4.73645     -0.19434     -2.19693        -0.047723      0.575089     -0.054263
O	      2.21440      4.73543      0.11846         0.263253     -0.226786     -1.952962
O	      4.66597      2.09410     -4.65651         0.413201     -0.120156     -0.202517
O	      2.24727      7.06264     -2.34555         0.083863     -1.621607     -0.485207
