# total energy = -103.55742384 eV
 
CRYSTAL
PRIMVEC
2.207730 4.452549 2.177902 
4.458485 -2.238914 -2.197051 
0.006882 4.444855 -4.348036 
PRIMCOORD
16 1
Li	      4.64325      2.45512     -2.29258        -0.076329      0.362490     -0.008495
Li	      2.34072      4.56903     -2.39880        -0.103403     -0.359614     -0.137049
Li	      2.38851      2.32294     -4.57645         0.449503     -0.162912      0.224677
Li	      4.60304      4.58195     -4.51381        -0.141502     -0.077360      0.085697
Mn	      0.18903      0.07567     -0.25832        -0.017278      1.724050      3.808940
Mn	      2.32808      2.31502      0.02870         0.249128     -0.571082     -1.303089
Mn	      2.36565      0.00449     -2.26988         0.709139      1.580961     -0.654178
Mn	      0.26075      2.41695     -2.31767        -1.567920      0.032347      0.321647
O	      2.21180      2.19555     -2.18518         0.213629     -0.126786      0.343852
O	      4.76865      4.68083     -2.14239         0.237174     -0.583794      0.694972
O	      2.40668      4.62867     -4.66614         0.353386     -0.359110      0.236470
O	      4.49066      2.52281     -0.02486        -1.065442      0.126610     -0.528491
O	      4.78210     -0.19621     -2.21811        -0.036829      0.647333     -0.043277
O	      2.23574      4.78107      0.11960         0.244496     -0.232319     -2.307372
O	      4.71094      2.11427     -4.70139         0.477375     -0.132969     -0.176534
O	      2.26893      7.13071     -2.36816         0.074873     -1.867844     -0.557771
