# total energy = -101.19068530 eV
 
CRYSTAL
PRIMVEC
1.965248 4.114695 2.028198 
3.918080 -2.054755 -2.021377 
-0.002012 4.109351 -4.044172 
PRIMCOORD
16 1
Li	      3.69461      1.98158     -1.87540         0.956875     -0.049283     -0.495086
Li	      3.68618      0.15584     -3.76941         0.123021     -1.058818     -0.463984
Li	      3.76081      5.70414     -1.98208         0.058355      1.352274     -0.046608
Li	      3.75268      3.87850     -3.88332         0.072694     -0.237326     -0.269197
Mn	      5.54703      5.84046     -3.81274         4.119660      0.620563     -1.569842
Mn	      1.86359      1.95337      0.00356        -1.253995     -2.932433      4.048052
Mn	      1.89919      0.01771     -1.94156        -2.680727     -1.523887      1.380345
Mn	      1.86245      3.90602     -1.91739        -2.946827      1.322391     -0.876340
O	      1.85462      2.09682     -1.75872        -1.176430     -2.012820     -2.726744
O	      3.63144      3.91388     -1.77118         3.605885      0.103644     -1.380625
O	      1.78912      4.05865     -3.95511        -0.649458      0.049494     -1.530060
O	      3.82342      1.92281      0.04816        -1.399723     -0.653935      0.768068
O	      3.62481      0.03165     -1.96018         3.267722     -0.700071      0.251194
O	      1.93490      3.75213      0.12064        -0.972917      2.480765      2.019337
O	      3.81555      1.94549     -3.98231        -0.725589     -0.192997      0.453647
O	      1.87008      5.71447     -2.07660        -0.398548      3.432437      0.437842
