# total energy = -90.20370347 eV
 
CRYSTAL
PRIMVEC
-0.000027 2.096240 -2.096519 
0.000071 2.096237 2.096516 
16.227072 -0.000035 0.000229 
PRIMCOORD
16 1
Li	      2.15749      2.09656     -0.00182        -0.053702      0.000962     -0.000852
Li	      4.03385      2.09619      2.09496        -0.087748      0.000643      0.001027
Li	      8.00462      0.00095     -0.00059         0.061127      0.000154     -0.000693
Li	     14.21753      2.09744     -0.00103         0.006887     -0.000899     -0.000050
Mn	     16.22055      2.09715      2.09498         0.059525     -0.000255      0.000868
Mn	     10.03535      2.09723     -0.00063        -0.060471     -0.000066     -0.000309
Ni	      6.06059      2.09636     -0.00085         0.208966      0.001022     -0.000851
Ni	     12.31495      0.00103     -0.00077         0.016753      0.000651     -0.000887
O	     14.30479      2.09745      2.09514         0.126992     -0.001483      0.001507
O	     16.21505      2.09719     -0.00162        -0.029979     -0.000647      0.001419
O	     10.17540      0.00100     -0.00060        -0.048903     -0.000269     -0.000441
O	     12.05779      2.09724     -0.00073        -0.021807     -0.000636      0.000352
O	      6.09803      2.09635      2.09566         0.002154      0.000836     -0.000784
O	      8.19995      2.09720     -0.00058         0.066594     -0.001397      0.000281
O	      1.83084      2.09682      2.09470        -0.039052      0.000263     -0.000441
O	      4.12118      2.09614     -0.00128        -0.207336      0.001122     -0.000145
