# total energy = -102.92263392 eV
 
CRYSTAL
PRIMVEC
1.985935 4.158008 2.049548 
3.959323 -2.076384 -2.042654 
-0.002034 4.152607 -4.086742 
PRIMCOORD
16 1
Li	      3.77279      2.02351     -1.91509         0.690280     -0.041053     -0.375720
Li	      3.76419      0.15914     -3.84918         0.075926     -0.791861     -0.328729
Li	      3.84040      5.82486     -2.02403         0.027181      1.005502     -0.015225
Li	      3.83210      3.96059     -3.96550         0.036424     -0.206787     -0.194773
Mn	      5.66442      5.96406     -3.89343         3.182725      0.640755     -1.321573
Mn	      1.90303      1.99471      0.00364        -0.905048     -2.177625      2.980948
Mn	      1.93939      0.01808     -1.98265        -1.890952     -1.126066      1.087998
Mn	      1.90187      3.98869     -1.95796        -2.087849      1.010347     -0.640314
O	      1.89387      2.14119     -1.79594        -0.864668     -1.469994     -1.954684
O	      3.70830      3.99672     -1.80866         2.614566      0.122223     -1.103891
O	      1.82698      4.14455     -4.03881        -0.532208      0.068077     -1.163785
O	      3.90434      1.96351      0.04918        -0.987417     -0.619231      0.655145
O	      3.70152      0.03231     -2.00167         2.291578     -0.529133      0.155890
O	      1.97585      3.83153      0.12319        -0.737713      1.776685      1.573269
O	      3.89630      1.98666     -4.06659        -0.624815     -0.207410      0.316492
O	      1.90965      5.83541     -2.12055        -0.288010      2.545572      0.328950
