# total energy = -103.52930944 eV
 
CRYSTAL
PRIMVEC
1.996279 4.179664 2.060223 
3.979945 -2.087199 -2.053293 
-0.002044 4.174235 -4.108027 
PRIMCOORD
16 1
Li	      3.81220      2.04465     -1.93509         0.577591     -0.038602     -0.314917
Li	      3.80350      0.16081     -3.88938         0.055966     -0.672031     -0.272371
Li	      3.88051      5.88569     -2.04516         0.020509      0.855237     -0.011807
Li	      3.87213      4.00195     -4.00692         0.024353     -0.183235     -0.164309
Mn	      5.72358      6.02636     -3.93409         2.733553      0.613720     -1.180826
Mn	      1.92290      2.01554      0.00368        -0.753146     -1.834010      2.502993
Mn	      1.95964      0.01827     -2.00336        -1.554789     -0.944900      0.943314
Mn	      1.92173      4.03035     -1.97841        -1.716366      0.863369     -0.531603
O	      1.91365      2.16355     -1.81469        -0.729285     -1.228365     -1.621296
O	      3.74703      4.03845     -1.82755         2.175181      0.120998     -0.968244
O	      1.84606      4.18783     -4.08100        -0.474822      0.064675     -0.987814
O	      3.94511      1.98401      0.04969        -0.814359     -0.578068      0.580518
O	      3.74018      0.03265     -2.02257         1.880416     -0.450141      0.118799
O	      1.99648      3.87155      0.12448        -0.629224      1.475513      1.355695
O	      3.93700      2.00740     -4.10906        -0.560949     -0.200053      0.268111
O	      1.92960      5.89635     -2.14269        -0.234631      2.135891      0.283756
