# total energy = -104.03802520 eV
 
CRYSTAL
PRIMVEC
2.006622 4.201320 2.070897 
4.000566 -2.098013 -2.063932 
-0.002055 4.195864 -4.129313 
PRIMCOORD
16 1
Li	      3.85180      2.06589     -1.95519         0.468488     -0.034661     -0.261711
Li	      3.84302      0.16247     -3.92979         0.041827     -0.559674     -0.219276
Li	      3.92083      5.94684     -2.06641         0.010762      0.711285     -0.007419
Li	      3.91235      4.04353     -4.04855         0.012470     -0.157185     -0.136486
Mn	      5.78305      6.08897     -3.97497         2.295817      0.569105     -1.033796
Mn	      1.94288      2.03648      0.00372        -0.616654     -1.515661      2.056666
Mn	      1.98000      0.01846     -2.02418        -1.251683     -0.776872      0.800758
Mn	      1.94170      4.07222     -1.99896        -1.381233      0.722780     -0.432166
O	      1.93354      2.18604     -1.83355        -0.602551     -1.002473     -1.315559
O	      3.78596      4.08042     -1.84654         1.771037      0.112923     -0.829987
O	      1.86524      4.23134     -4.12340        -0.412401      0.060433     -0.821644
O	      3.98610      2.00462      0.05021        -0.651547     -0.524832      0.501395
O	      3.77903      0.03299     -2.04359         1.510701     -0.378416      0.088323
O	      2.01723      3.91178      0.12577        -0.523637      1.203530      1.147244
O	      3.97790      2.02826     -4.15175        -0.484449     -0.188417      0.226760
O	      1.94964      5.95761     -2.16496        -0.186946      1.758134      0.236899
