# total energy = -104.45470075 eV
 
CRYSTAL
PRIMVEC
2.016965 4.222977 2.081572 
4.021188 -2.108828 -2.074571 
-0.002065 4.217492 -4.150598 
PRIMCOORD
16 1
Li	      3.89162      2.08724     -1.97540         0.367374     -0.031558     -0.206798
Li	      3.88274      0.16415     -3.97041         0.027355     -0.456932     -0.173285
Li	      3.96135      6.00831     -2.08777         0.009302      0.576812     -0.004186
Li	      3.95279      4.08532     -4.09039         0.008386     -0.129601     -0.109269
Mn	      5.84282      6.15190     -4.01605         1.874779      0.505419     -0.877425
Mn	      1.96296      2.05753      0.00376        -0.491546     -1.216985      1.644581
Mn	      2.00047      0.01865     -2.04510        -0.978582     -0.620091      0.660958
Mn	      1.96176      4.11431     -2.01963        -1.080037      0.588261     -0.341699
O	      1.95352      2.20863     -1.85250        -0.485205     -0.797550     -1.038224
O	      3.82509      4.12259     -1.86563         1.399760      0.103636     -0.691740
O	      1.88452      4.27507     -4.16602        -0.352157      0.054063     -0.665581
O	      4.02730      2.02534      0.05073        -0.502896     -0.459266      0.415263
O	      3.81810      0.03333     -2.06471         1.175426     -0.305803      0.064306
O	      2.03807      3.95221      0.12707        -0.422350      0.953973      0.943260
O	      4.01901      2.04922     -4.19467        -0.405442     -0.173119      0.186275
O	      1.96979      6.01919     -2.18734        -0.144165      1.408741      0.193565
