# total energy = -105.03308571 eV
 
CRYSTAL
PRIMVEC
2.037652 4.266289 2.102922 
4.062431 -2.130457 -2.095848 
-0.002087 4.260748 -4.193168 
PRIMCOORD
16 1
Li	      3.97185      2.13028     -2.01613         0.201732     -0.027095     -0.115281
Li	      3.96280      0.16754     -4.05227         0.003517     -0.262975     -0.093292
Li	      4.04302      6.13219     -2.13082         0.004515      0.331633     -0.004032
Li	      4.03429      4.16955     -4.17473         0.002691     -0.073396     -0.061103
Mn	      5.96329      6.27874     -4.09886         1.077793      0.337429     -0.543777
Mn	      2.00344      2.09995      0.00383        -0.266601     -0.677677      0.906510
Mn	      2.04171      0.01903     -2.08726        -0.516306     -0.335224      0.392412
Mn	      2.00221      4.19914     -2.06127        -0.566929      0.333348     -0.182152
O	      1.99379      2.25416     -1.89069        -0.275958     -0.435425     -0.552778
O	      3.90395      4.20759     -1.90409         0.751595      0.074226     -0.413931
O	      1.92338      4.36321     -4.25191        -0.223091      0.024946     -0.378932
O	      4.11034      2.06710      0.05177        -0.250366     -0.303552      0.242696
O	      3.89682      0.03402     -2.10728         0.603552     -0.171308      0.030640
O	      2.08010      4.03369      0.12969        -0.233720      0.521255      0.550307
O	      4.10188      2.09148     -4.28115        -0.247207     -0.114752      0.111177
O	      2.01041      6.14329     -2.23243        -0.065217      0.778567      0.111535
