# total energy = -105.20470789 eV
 
CRYSTAL
PRIMVEC
2.047996 4.287946 2.113596 
4.083052 -2.141271 -2.106487 
-0.002097 4.282376 -4.214453 
PRIMCOORD
16 1
Li	      4.01228      2.15196     -2.03665         0.125368     -0.020925     -0.072375
Li	      4.00313      0.16925     -4.09351        -0.003892     -0.176727     -0.055399
Li	      4.08418      6.19460     -2.15250         0.006420      0.219541     -0.003706
Li	      4.07535      4.21199     -4.21722         0.002239     -0.045374     -0.039647
Mn	      6.02398      6.34265     -4.14057         0.702485      0.233030     -0.373264
Mn	      2.02383      2.12132      0.00387        -0.170267     -0.437102      0.577701
Mn	      2.06249      0.01923     -2.10850        -0.322898     -0.208853      0.263305
Mn	      2.02259      4.24188     -2.08225        -0.354715      0.215579     -0.114034
O	      2.01409      2.27711     -1.90994        -0.183434     -0.279082     -0.348078
O	      3.94369      4.25041     -1.92347         0.471806      0.048351     -0.279417
O	      1.94295      4.40763     -4.29519        -0.153933      0.011688     -0.252192
O	      4.15217      2.08814      0.05230        -0.142068     -0.213386      0.158148
O	      3.93648      0.03436     -2.12873         0.368515     -0.106532      0.022530
O	      2.10127      4.07475      0.13101        -0.149622      0.337869      0.367547
O	      4.14363      2.11277     -4.32472        -0.163632     -0.078185      0.075092
O	      2.03087      6.20582     -2.25515        -0.032372      0.500108      0.073787
