# total energy = -105.30484910 eV
 
CRYSTAL
PRIMVEC
2.058339 4.309602 2.124271 
4.103674 -2.152086 -2.117126 
-0.002108 4.304004 -4.235738 
PRIMCOORD
16 1
Li	      4.05291      2.17375     -2.05727         0.055098     -0.019709     -0.032389
Li	      4.04366      0.17095     -4.13496        -0.011820     -0.094532     -0.023616
Li	      4.12553      6.25733     -2.17430         0.009076      0.112232     -0.005947
Li	      4.11662      4.25464     -4.25993         0.003810     -0.014600     -0.018314
Mn	      6.08499      6.40688     -4.18250         0.342576      0.115898     -0.193706
Mn	      2.04432      2.14280      0.00391        -0.081631     -0.210820      0.275909
Mn	      2.08338      0.01942     -2.12986        -0.151115     -0.089687      0.135947
Mn	      2.04307      4.28483     -2.10333        -0.164187      0.100341     -0.052723
O	      2.03448      2.30017     -1.92928        -0.101685     -0.134534     -0.163011
O	      3.98363      4.29345     -1.94295         0.223478      0.026717     -0.141146
O	      1.96263      4.45226     -4.33868        -0.082864     -0.007776     -0.134272
O	      4.19422      2.10928      0.05283        -0.050034     -0.119467      0.069980
O	      3.97634      0.03471     -2.15028         0.162954     -0.043224      0.014618
O	      2.12255      4.11601      0.13234        -0.067990      0.172846      0.192668
O	      4.18559      2.13416     -4.36852        -0.082499     -0.039031      0.037040
O	      2.05143      6.26866     -2.27799        -0.003166      0.245345      0.038962
