# total energy = -105.30835273 eV
 
CRYSTAL
PRIMVEC
2.079026 4.352914 2.145620 
4.144917 -2.173715 -2.138404 
-0.002129 4.347261 -4.278308 
PRIMCOORD
16 1
Li	      4.13479      2.21766     -2.09883        -0.063169     -0.010271      0.038469
Li	      4.12535      0.17441     -4.21850        -0.019044      0.051660      0.026664
Li	      4.20887      6.38374     -2.21822         0.018826     -0.072412     -0.013379
Li	      4.19979      4.34059     -4.34599         0.007008      0.045183      0.022642
Mn	      6.21004      2.18904      0.01131        -0.328688     -0.156950      0.168934
Mn	      2.08562      2.18610      0.00399         0.074177      0.202907     -0.263239
Mn	      2.12547      0.01981     -2.17289         0.131802      0.121847     -0.104223
Mn	      2.08435      4.37139     -2.14583         0.147128     -0.107123      0.052927
O	      2.07558      2.34663     -1.96825         0.045836      0.111004      0.152746
O	      4.06410      4.38019     -1.98220        -0.201681     -0.034283      0.121957
O	      2.00228      4.54220     -4.42633         0.069432     -0.050745      0.079476
O	      4.27895      2.15190      0.05389         0.090291      0.080215     -0.097978
O	      4.05667      0.03541     -2.19372        -0.182066      0.087184      0.019225
O	      2.16543      4.19916      0.13501         0.083975     -0.107654     -0.143586
O	      4.27015      2.17727     -4.45677         0.077813      0.051402     -0.028364
O	      2.09288      6.39530     -2.32401         0.048362     -0.211964     -0.032270
