# total energy = -105.07644960 eV
 
CRYSTAL
PRIMVEC
2.099713 4.396227 2.166970 
4.186159 -2.195344 -2.159681 
-0.002150 4.390517 -4.320879 
PRIMCOORD
16 1
Li	      4.21748      2.26202     -2.14081        -0.158164      0.005846      0.094015
Li	      4.20786      0.17790     -4.30287        -0.023079      0.182771      0.069699
Li	      4.29305      6.51141     -2.26259         0.029817     -0.232993     -0.024755
Li	      4.28378      4.42741     -4.43290         0.014300      0.101832      0.061637
Mn	      0.04834      0.07563     -0.03874        -0.941194     -0.474199      0.543399
Mn	      2.12733      2.22982      0.00407         0.206746      0.559921     -0.722981
Mn	      2.16798      0.02021     -2.21634         0.341247      0.305806     -0.329854
Mn	      2.12603      4.45882     -2.18874         0.380594     -0.302931      0.137687
O	      2.11709      2.39357     -2.00762         0.172658      0.308075      0.412365
O	      4.14538      4.46779     -2.02184        -0.537038     -0.111143      0.373693
O	      2.04232      4.63304     -4.51485         0.239146     -0.111405      0.255954
O	      4.36452      2.19494      0.05497         0.173208      0.291723     -0.259079
O	      4.13780      0.03612     -2.23760        -0.426391      0.231162      0.037550
O	      2.20873      4.28314      0.13771         0.210437     -0.327403     -0.456740
O	      4.35555      2.22082     -4.54590         0.232153      0.155740     -0.093226
O	      2.13474      6.52320     -2.37049         0.085559     -0.582801     -0.099366
