# total energy = -104.35335773 eV
 
CRYSTAL
PRIMVEC
2.130743 4.461196 2.198994 
4.248024 -2.227787 -2.191598 
-0.002182 4.455401 -4.384734 
PRIMCOORD
16 1
Li	      4.34306      2.32937     -2.20455        -0.264824      0.030662      0.163284
Li	      0.08512      2.41098     -2.23939        -0.022093      0.350300      0.109401
Li	      2.29013      2.24409     -4.52895         0.049839     -0.440076     -0.035603
Li	      4.41133      4.55923     -4.56489         0.026719      0.186906      0.119446
Mn	      0.14402      0.17673     -0.10459        -1.741624     -1.029914      1.090453
Mn	      2.19067      2.29621      0.00419         0.370476      1.008884     -1.271141
Mn	      2.23253      0.02081     -2.28233         0.546665      0.537945     -0.630564
Mn	      2.18933      4.59158     -2.25391         0.617929     -0.554212      0.227555
O	      2.18013      2.46484     -2.06739         0.319575      0.529488      0.683595
O	      4.26881      4.60082     -2.08204        -0.890953     -0.240573      0.715251
O	      2.10531      0.31559     -0.26455         0.526350     -0.227843      0.461185
O	      4.49448      2.26029      0.05661         0.208524      0.603664     -0.473957
O	      4.26100      0.03720     -2.30422        -0.652155      0.482881      0.086289
O	      2.27450      4.41067      0.14181         0.352371     -0.553948     -0.897010
O	      4.48523      2.28694     -4.68126         0.426087      0.333905     -0.181135
O	      2.19830      6.71743     -2.44107         0.127114     -1.018069     -0.167048
