# total energy = -104.02583842 eV
 
CRYSTAL
PRIMVEC
2.141086 4.482852 2.209669 
4.268645 -2.238602 -2.202237 
-0.002192 4.477030 -4.406019 
PRIMCOORD
16 1
Li	      4.38532      2.35204     -2.22600        -0.289478      0.039710      0.179810
Li	      0.10667      2.42358     -2.27187        -0.020345      0.396307      0.121911
Li	      2.32282      2.28770     -4.56230         0.055941     -0.495058     -0.042092
Li	      4.45426      4.60361     -4.60932         0.031879      0.210436      0.141444
Mn	      0.17653      0.21107     -0.12696        -1.982349     -1.230883      1.264959
Mn	      2.21199      2.31855      0.00423         0.418356      1.139899     -1.420910
Mn	      2.25425      0.02101     -2.30455         0.588569      0.605102     -0.721501
Mn	      2.21064      4.63627     -2.27584         0.673707     -0.627701      0.253550
O	      2.20135      2.48882     -2.08751         0.361937      0.582168      0.749152
O	      4.31036      4.64559     -2.10231        -0.978125     -0.285273      0.818746
O	      2.12579      0.34040     -0.28852         0.625182     -0.272752      0.514567
O	      4.53822      2.28229      0.05716         0.196943      0.706940     -0.541019
O	      4.30247      0.03756     -2.32665        -0.692679      0.572526      0.110613
O	      2.29664      4.45360      0.14319         0.384425     -0.606849     -1.033033
O	      4.52888      2.30920     -4.72682         0.486738      0.397507     -0.208988
O	      2.21969      6.78281     -2.46483         0.139299     -1.132080     -0.187211
