# total energy = -103.66101605 eV
 
CRYSTAL
PRIMVEC
2.151430 4.504508 2.220344 
4.289267 -2.249416 -2.212876 
-0.002203 4.498658 -4.427304 
PRIMCOORD
16 1
Li	      4.42780      2.37482     -2.24756        -0.310376      0.053408      0.195739
Li	      0.12843      2.43618     -2.30456        -0.015953      0.440863      0.128316
Li	      2.35571      2.33162     -4.59577         0.060829     -0.548566     -0.042054
Li	      4.49740      4.64819     -4.65396         0.038710      0.237294      0.161257
Mn	      0.20934      0.24575     -0.14954        -2.208784     -1.441549      1.435680
Mn	      2.23342      2.34101      0.00427         0.463256      1.259164     -1.556133
Mn	      2.27609      0.02122     -2.32686         0.620695      0.667554     -0.808841
Mn	      2.23205      4.68117     -2.29789         0.718740     -0.698981      0.274709
O	      2.22267      2.51292     -2.10773         0.394364      0.629686      0.802586
O	      4.35210      4.69059     -2.12267        -1.055482     -0.330324      0.913124
O	      2.14637      0.36543     -0.31270         0.729929     -0.328055      0.563414
O	      4.58217      2.30439      0.05771         0.178983      0.806808     -0.602591
O	      4.34414      0.03792     -2.34918        -0.712124      0.661152      0.133882
O	      2.31888      4.49673      0.14458         0.409220     -0.642293     -1.166917
O	      4.57275      2.33156     -4.77260         0.539501      0.462615     -0.233405
O	      2.24119      6.84850     -2.48870         0.148494     -1.228776     -0.198767
