# total energy = -103.26158944 eV
 
CRYSTAL
PRIMVEC
2.161773 4.526165 2.231018 
4.309888 -2.260231 -2.223514 
-0.002214 4.520286 -4.448589 
PRIMCOORD
16 1
Li	      4.47047      2.39771     -2.26923        -0.327121      0.066851      0.208473
Li	      0.15039      2.44880     -2.33747        -0.012848      0.480169      0.133251
Li	      2.38880      2.37584     -4.62933         0.065850     -0.597384     -0.048371
Li	      4.54075      4.69299     -4.69882         0.044310      0.256823      0.182465
Mn	      0.24246      0.28074     -0.17233        -2.421416     -1.654149      1.594350
Mn	      2.25495      2.36358      0.00431         0.507970      1.371932     -1.672930
Mn	      2.29802      0.02142     -2.34929         0.633612      0.725169     -0.891243
Mn	      2.25356      4.72629     -2.32003         0.757209     -0.762628      0.293138
O	      2.24409      2.53715     -2.12805         0.427261      0.667361      0.843366
O	      4.39405      4.73580     -2.14313        -1.119829     -0.375295      0.994802
O	      2.16705      0.39068     -0.33710         0.836989     -0.386077      0.605826
O	      4.62634      2.32660      0.05827         0.150186      0.898315     -0.657861
O	      4.38602      0.03829     -2.37182        -0.718979      0.751229      0.168046
O	      2.34123      4.54008      0.14597         0.424530     -0.664531     -1.289999
O	      4.61682      2.35404     -4.81860         0.590364      0.527575     -0.260410
O	      2.26279      6.91451     -2.51269         0.161912     -1.305360     -0.202905
