# total energy = -102.83140488 eV
 
CRYSTAL
PRIMVEC
2.172117 4.547821 2.241693 
4.330510 -2.271045 -2.234153 
-0.002224 4.541914 -4.469874 
PRIMCOORD
16 1
Li	      4.51336      2.42071     -2.29100        -0.339335      0.083342      0.218439
Li	      0.17255      2.46142     -2.37058        -0.008176      0.514317      0.134731
Li	      2.42211      2.42040     -4.66301         0.070708     -0.637898     -0.050341
Li	      4.58430      4.73801     -4.74389         0.049661      0.275445      0.205811
Mn	      0.27589      0.31606     -0.19534        -2.618854     -1.865676      1.741659
Mn	      2.27657      2.38625      0.00435         0.553337      1.477724     -1.770295
Mn	      2.32007      0.02163     -2.37183         0.631342      0.776377     -0.968256
Mn	      2.27518      4.77163     -2.34229         0.792251     -0.824831      0.311768
O	      2.26562      2.56149     -2.14846         0.454096      0.700071      0.874520
O	      4.43620      4.78122     -2.16368        -1.168412     -0.419042      1.061301
O	      2.18782      0.41616     -0.36172         0.945029     -0.458479      0.639625
O	      4.67071      2.34892      0.05883         0.114728      0.984394     -0.706922
O	      4.42808      0.03866     -2.39458        -0.698377      0.822696      0.199659
O	      2.36369      4.58363      0.14737         0.422943     -0.662205     -1.401018
O	      4.66111      2.37662     -4.86482         0.629600      0.595136     -0.289648
O	      2.28450      6.98083     -2.53679         0.169457     -1.361373     -0.201034
