# total energy = -100.91943730 eV
 
CRYSTAL
PRIMVEC
1.998062 3.948576 2.039692 
4.000368 -1.957488 -2.076937 
0.036753 3.943868 -4.109134 
PRIMCOORD
16 1
Li	      1.95811     -0.00384     -1.93882        -0.977309     -0.612035      0.166437
Li	      3.76370      0.05150     -3.85584         0.004222     -1.128171     -0.592314
Li	      3.84628      5.55799     -2.10284         0.052566      0.761110      0.147919
Li	      3.84901      3.76260     -3.92871         0.135535      0.457107     -0.433767
Mn	      3.79574      1.92660     -5.83669         1.260372     -0.487966     -3.979456
Mn	      1.93562      1.86462      0.01911        -1.066536     -2.181126      3.927237
Mn	      3.77569      1.87417     -1.97985         4.038817     -0.367870     -0.618600
Mn	      1.94820      3.75997     -1.97595        -3.174047      1.841032      0.372468
O	      1.98080      1.97006     -1.79468        -3.524284     -2.897291     -2.010261
O	      3.70379      3.64385     -1.98516         4.112106      3.239580      0.047805
O	      1.79602      3.87392     -3.95167        -0.223861     -0.163018     -1.919553
O	      3.90903      1.87366      0.01722         0.330424     -0.291106      1.702551
O	      3.76567      0.13496     -2.01092         0.208689     -3.919018      0.157853
O	      1.80910      3.67380      0.10612         0.111290      2.532009      1.293806
O	      3.93557      1.87970     -4.02503        -0.743338     -0.389088      1.230646
O	      1.99082      5.52575     -2.10620        -0.544647      3.605851      0.507229
