# total energy = -101.85705438 eV
 
CRYSTAL
PRIMVEC
2.008578 3.969358 2.050427 
4.021423 -1.967791 -2.087868 
0.036946 3.964625 -4.130761 
PRIMCOORD
16 1
Li	      1.97878     -0.00387     -1.95928        -0.850667     -0.518153      0.148620
Li	      3.80342      0.05204     -3.89654        -0.003032     -0.987816     -0.511259
Li	      3.88687      5.61665     -2.12503         0.027707      0.657660      0.137945
Li	      3.88964      3.80231     -3.97018         0.109008      0.379445     -0.371650
Mn	      3.83580      1.94693     -5.89829         1.152407     -0.469662     -3.507800
Mn	      1.95604      1.88430      0.01932        -0.880449     -1.836389      3.404592
Mn	      3.81554      1.89395     -2.00074         3.468549     -0.311919     -0.551013
Mn	      1.96877      3.79966     -1.99680        -2.670426      1.610394      0.353160
O	      2.00170      1.99086     -1.81362        -3.024619     -2.485126     -1.694554
O	      3.74288      3.68231     -2.00611         3.539042      2.772619      0.024265
O	      1.81498      3.91481     -3.99338        -0.218182     -0.120527     -1.678963
O	      3.95029      1.89343      0.01740         0.242790     -0.260146      1.531120
O	      3.80541      0.13638     -2.03214         0.165261     -3.354889      0.120936
O	      1.82820      3.71257      0.10724         0.104178      2.164321      1.183178
O	      3.97711      1.89953     -4.06752        -0.696844     -0.349110      0.977561
O	      2.01184      5.58407     -2.12843        -0.464722      3.109298      0.433862
