# total energy = -102.66479972 eV
 
CRYSTAL
PRIMVEC
2.019094 3.990140 2.061163 
4.042477 -1.978094 -2.098799 
0.037140 3.985383 -4.152388 
PRIMCOORD
16 1
Li	      1.99955     -0.00392     -1.97985        -0.735063     -0.434908      0.132244
Li	      3.84335      0.05258     -3.93744        -0.009854     -0.847514     -0.436636
Li	      3.92768      5.67562     -2.14734         0.010530      0.558441      0.126697
Li	      3.93047      3.84223     -4.01186         0.088602      0.309413     -0.314206
Mn	      3.87607      1.96737     -5.96021         1.032773     -0.447211     -3.061785
Mn	      1.97658      1.90408      0.01952        -0.716371     -1.527992      2.916106
Mn	      3.85560      1.91384     -2.02175         2.944893     -0.258883     -0.483269
Mn	      1.98943      3.83954     -2.01776        -2.215234      1.393773      0.328853
O	      2.02272      2.01175     -1.83266        -2.568669     -2.107801     -1.408353
O	      3.78218      3.72097     -2.02718         3.002101      2.342176      0.009742
O	      1.83404      3.95591     -4.03530        -0.206600     -0.089225     -1.444102
O	      3.99176      1.91331      0.01759         0.174800     -0.228831      1.351552
O	      3.84536      0.13782     -2.05348         0.125367     -2.833265      0.087030
O	      1.84739      3.75155      0.10837         0.100575      1.833338      1.063992
O	      4.01886      1.91948     -4.11021        -0.637301     -0.308324      0.763115
O	      2.03296      5.64270     -2.15077        -0.390549      2.646813      0.369019
