# total energy = -92.59535647 eV
 
CRYSTAL
PRIMVEC
2.155479 4.065679 2.007861 
4.298219 -2.006823 -2.047241 
0.045912 4.058760 -4.047401 
PRIMCOORD
16 1
Li	      2.03108      2.03491     -0.02987        -0.007186     -0.010615     -0.009449
Li	      2.25920     -0.00349     -2.05373         0.001639      0.011437      0.013579
Li	      0.13322      2.01156     -2.01047         0.030097     -0.007652      0.002668
Li	      4.42034      4.11721     -4.08734         0.014116     -0.010160      0.004172
Mn	      4.28283     -1.95959     -2.06493        -0.000969      0.021944     -0.010577
Mn	      2.18908      4.09653     -2.01262        -0.006597     -0.023775      0.007544
Ni	      4.28610      2.02538     -2.02348         0.010838     -0.034799     -0.018141
Ni	      4.31791      6.08232     -2.06209         0.069851     -0.010143     -0.047513
O	      4.06482      4.07591     -2.04484        -0.057356     -0.019596     -0.002524
O	      4.43938      2.05635     -4.14996         0.073298      0.001373     -0.087826
O	      4.55193      2.03778     -0.01380         0.046174     -0.005536      0.004922
O	      4.27283     -0.06901     -2.07025         0.003500     -0.115178      0.006213
O	      2.04586      4.06277     -0.02055         0.107810      0.009384     -0.015742
O	      2.26233      2.16952     -2.04417        -0.133569      0.067935      0.122715
O	      2.25352      6.07938     -2.03948        -0.132253      0.000293      0.004895
O	      2.00841      4.06516     -3.94969        -0.019394      0.125090      0.025065
