# total energy = -103.35213960 eV
 
CRYSTAL
PRIMVEC
2.029610 4.010922 2.071898 
4.063532 -1.988396 -2.109730 
0.037333 4.006140 -4.174015 
PRIMCOORD
16 1
Li	      2.02043     -0.00396     -2.00052        -0.626729     -0.356880      0.116242
Li	      3.88349      0.05313     -3.97856        -0.011261     -0.718883     -0.365321
Li	      3.96870      5.73489     -2.16977        -0.004488      0.466622      0.114542
Li	      3.97152      3.88236     -4.05376         0.071351      0.249498     -0.267004
Mn	      3.91655      1.98792     -6.02246         0.908507     -0.416710     -2.633726
Mn	      1.99723      1.92397      0.01972        -0.573483     -1.248826      2.461987
Mn	      3.89587      1.93382     -2.04286         2.456793     -0.211321     -0.415045
Mn	      2.01021      3.87965     -2.03884        -1.806328      1.187733      0.296386
O	      2.04384      2.03276     -1.85180        -2.142198     -1.753467     -1.155969
O	      3.82167      3.75983     -2.04835         2.503867      1.952150     -0.003508
O	      1.85319      3.99722     -4.07745        -0.189396     -0.065785     -1.222941
O	      4.03345      1.93329      0.01777         0.123509     -0.199732      1.174082
O	      3.88552      0.13925     -2.07492         0.094220     -2.356322      0.061614
O	      1.86668      3.79073      0.10950         0.089297      1.526810      0.944411
O	      4.06084      1.93952     -4.15314        -0.567017     -0.270092      0.584041
O	      2.05419      5.70163     -2.17323        -0.326645      2.215208      0.310209
