# total energy = -103.92643922 eV
 
CRYSTAL
PRIMVEC
2.040126 4.031704 2.082633 
4.084586 -1.998699 -2.120662 
0.037527 4.026897 -4.195642 
PRIMCOORD
16 1
Li	      2.04142     -0.00400     -2.02131        -0.523802     -0.288385      0.102230
Li	      3.92384      0.05369     -4.01990        -0.015323     -0.599690     -0.299243
Li	      4.00993      5.79447     -2.19231        -0.009669      0.383243      0.098720
Li	      4.01278      3.92269     -4.09588         0.051187      0.195114     -0.218427
Mn	      3.95724      2.00857     -6.08503         0.782253     -0.377310     -2.223114
Mn	      2.01797      1.94396      0.01993        -0.446112     -0.996294      2.036602
Mn	      3.93634      1.95392     -2.06409         2.008957     -0.172800     -0.346303
Mn	      2.03110      3.91995     -2.06002        -1.442793      0.992485      0.260361
O	      2.06508      2.05389     -1.87104        -1.748181     -1.427857     -0.930080
O	      3.86138      3.79889     -2.06963         2.042555      1.590332     -0.014967
O	      1.87245      4.03875     -4.11981        -0.171611     -0.045184     -1.013215
O	      4.07535      1.95338      0.01795         0.084852     -0.171803      0.993217
O	      3.92589      0.14070     -2.09648         0.062613     -1.911679      0.042965
O	      1.88608      3.83012      0.11064         0.076071      1.249729      0.822366
O	      4.10302      1.95967     -4.19629        -0.486105     -0.232570      0.431224
O	      2.07553      5.76086     -2.19581        -0.264891      1.812667      0.257665
