# total energy = -105.23680543 eV
 
CRYSTAL
PRIMVEC
2.082191 4.114832 2.125574 
4.168805 -2.039909 -2.164387 
0.038300 4.109926 -4.282150 
PRIMCOORD
16 1
Li	      2.12647     -0.00417     -2.10552        -0.165909     -0.069154      0.042057
Li	      4.08731      0.05593     -4.18738        -0.021781     -0.182491     -0.080085
Li	      4.17700      6.03588     -2.28365        -0.009846      0.098280      0.040533
Li	      4.17997      4.08612     -4.26652         0.005277      0.040742     -0.063859
Mn	      4.12211      2.09226     -6.33854         0.260405     -0.162420     -0.713148
Mn	      2.10205      2.02495      0.02076        -0.094451     -0.249978      0.592705
Mn	      4.10034      2.03532     -2.15008         0.547693     -0.035953     -0.101275
Mn	      2.11572      4.08327     -2.14585        -0.357561      0.305484      0.084167
O	      2.15112      2.13945     -1.94899        -0.474703     -0.387286     -0.234658
O	      4.02225      3.95716     -2.15585         0.558562      0.428007     -0.021436
O	      1.95045      4.20701     -4.29145        -0.064668     -0.015590     -0.292439
O	      4.24514      2.03476      0.01870         0.011365     -0.054981      0.306761
O	      4.08945      0.14656     -2.18382         0.002600     -0.493493      0.003360
O	      1.96466      3.98969      0.11525         0.028429      0.357337      0.292707
O	      4.27397      2.04131     -4.37112        -0.151760     -0.076786      0.073602
O	      2.16200      6.00088     -2.28730        -0.073652      0.498283      0.071010
