# total energy = -105.35007051 eV
 
CRYSTAL
PRIMVEC
2.092707 4.135613 2.136309 
4.189859 -2.050212 -2.175318 
0.038494 4.130683 -4.303777 
PRIMCOORD
16 1
Li	      2.14801     -0.00420     -2.12684        -0.089344     -0.026343      0.026269
Li	      4.12870      0.05649     -4.22978        -0.023678     -0.093045     -0.034766
Li	      4.21930      6.09701     -2.30677         0.000130      0.040889      0.023555
Li	      4.22229      4.12750     -4.30972        -0.002999      0.017721     -0.031311
Mn	      4.16385      2.11345     -6.40273         0.134304     -0.094977     -0.355465
Mn	      2.12333      2.04545      0.02097        -0.037424     -0.113576      0.283863
Mn	      4.14186      2.05593     -2.17185         0.254221     -0.006001     -0.046239
Mn	      2.13714      4.12461     -2.16757        -0.163258      0.152994      0.038145
O	      2.17290      2.16112     -1.96872        -0.227403     -0.183911     -0.103305
O	      4.06299      3.99723     -2.17768         0.265760      0.202843     -0.016874
O	      1.97020      4.24962     -4.33491        -0.037357     -0.022108     -0.146756
O	      4.28813      2.05537      0.01889         0.009271     -0.030513      0.144475
O	      4.13087      0.14804     -2.20594         0.001993     -0.221157      0.001320
O	      1.98455      4.03009      0.11641         0.016354      0.180060      0.157788
O	      4.31725      2.06199     -4.41538        -0.068249     -0.033927      0.026805
O	      2.18390      6.06164     -2.31046        -0.032321      0.231048      0.032497
