# total energy = -105.35967662 eV
 
CRYSTAL
PRIMVEC
2.113739 4.177177 2.157780 
4.231968 -2.070817 -2.197180 
0.038881 4.172197 -4.347031 
PRIMCOORD
16 1
Li	      2.19140     -0.00429     -2.16981         0.053974      0.046132     -0.004610
Li	      4.21211      0.05763     -4.31523        -0.020917      0.074464      0.046782
Li	      4.30453      6.22018     -2.35338         0.019324     -0.064638     -0.002723
Li	      4.30759      4.21088     -4.39678        -0.014660     -0.018144      0.023325
Mn	      4.20908     -2.01606     -2.18505        -0.110829      0.057062      0.355807
Mn	      2.16623      2.08677      0.02139         0.046808      0.101785     -0.282871
Mn	      4.22553      2.09746     -2.21573        -0.261623      0.056460      0.042360
Mn	      2.18032      4.20794     -2.21136         0.146385     -0.133363     -0.053399
O	      2.21679      2.20478     -2.00850         0.198585      0.167442      0.114401
O	      4.14506      4.07798     -2.22168        -0.224153     -0.190883     -0.000590
O	      2.01001      4.33546     -4.42248         0.023695     -0.039352      0.108316
O	      4.37475      2.09689      0.01927         0.018180      0.025467     -0.158060
O	      4.21431      0.15104     -2.25050         0.005965      0.234065      0.007681
O	      2.02464      4.11150      0.11877         0.002892     -0.123697     -0.139927
O	      4.40446      2.10364     -4.50458         0.087478      0.040315     -0.024647
O	      2.22801      6.18410     -2.35713         0.028895     -0.233116     -0.031844
