# total energy = -105.26654153 eV
 
CRYSTAL
PRIMVEC
2.124255 4.197959 2.168515 
4.253023 -2.081119 -2.208112 
0.039074 4.192955 -4.368658 
PRIMCOORD
16 1
Li	      2.21326     -0.00434     -2.19145         0.115188      0.076594     -0.017814
Li	      4.25413      0.05821     -4.35827        -0.021057      0.147780      0.083633
Li	      4.34747      6.28222     -2.37685         0.029795     -0.115283     -0.014000
Li	      4.35056      4.25288     -4.44064        -0.019755     -0.033770      0.048272
Mn	      4.25126     -2.01531     -2.22858        -0.227935      0.140487      0.716255
Mn	      2.18784      2.10759      0.02160         0.074960      0.187321     -0.541732
Mn	      4.26768      2.11839     -2.23783        -0.487837      0.086054      0.081931
Mn	      2.20206      4.24991     -2.23342         0.267501     -0.267745     -0.097208
O	      2.23890      2.22677     -2.02853         0.376305      0.320513      0.206098
O	      4.18641      4.11866     -2.24384        -0.426034     -0.350624      0.008547
O	      2.03005      4.37871     -4.46659         0.055439     -0.054453      0.217916
O	      4.41839      2.11780      0.01946         0.022729      0.052841     -0.296306
O	      4.25636      0.15254     -2.27295         0.013393      0.416731      0.012877
O	      2.04484      4.15252      0.11995         0.002231     -0.253918     -0.301108
O	      4.44840      2.12463     -4.54951         0.166623      0.083229     -0.041797
O	      2.25024      6.24578     -2.38065         0.058453     -0.435757     -0.065565
