# total energy = -105.11462738 eV
 
CRYSTAL
PRIMVEC
2.134771 4.218741 2.179250 
4.274077 -2.091422 -2.219043 
0.039267 4.213712 -4.390285 
PRIMCOORD
16 1
Li	      2.23522     -0.00438     -2.21320         0.174678      0.101860     -0.033175
Li	      4.29635      0.05879     -4.40153        -0.020516      0.221634      0.118257
Li	      4.39062      6.34457     -2.40044         0.042338     -0.160843     -0.031432
Li	      4.39374      4.29510     -4.48472        -0.022752     -0.045226      0.073598
Mn	      0.01958      0.07697     -0.05339        -0.336008      0.227852      1.079247
Mn	      2.20955      2.12850      0.02182         0.097107      0.257377     -0.786490
Mn	      4.31004      2.13942     -2.26004        -0.692160      0.117312      0.116792
Mn	      2.22392      4.29209     -2.25559         0.372273     -0.394705     -0.142915
O	      2.26113      2.24887     -2.04866         0.529478      0.455356      0.291358
O	      4.22796      4.15954     -2.26611        -0.609906     -0.493754      0.018448
O	      2.05020      4.42217     -4.51092         0.085144     -0.076130      0.321286
O	      4.46225      2.13882      0.01966         0.031470      0.081798     -0.427386
O	      4.29860      0.15406     -2.29551         0.023809      0.573846      0.021861
O	      2.06514      4.19373      0.12115         0.002637     -0.369156     -0.471756
O	      4.49255      2.14572     -4.59467         0.238978      0.121417     -0.049504
O	      2.27257      6.30778     -2.40428         0.083430     -0.618638     -0.098189
