# total energy = -104.90755755 eV
 
CRYSTAL
PRIMVEC
2.145288 4.239523 2.189985 
4.295132 -2.101724 -2.229974 
0.039461 4.234469 -4.411912 
PRIMCOORD
16 1
Li	      2.25730     -0.00442     -2.23506         0.233369      0.127602     -0.050344
Li	      0.04365      2.16109     -2.21503        -0.019752      0.292083      0.150152
Li	      4.43398      6.40724     -2.42415         0.058613     -0.201204     -0.046489
Li	      4.43713      4.33751     -4.52901        -0.025221     -0.054388      0.096974
Mn	      0.04112      0.08824     -0.08663        -0.436376      0.319750      1.452960
Mn	      2.23138      2.14953      0.02203         0.112990      0.315326     -1.015752
Mn	      4.35261      2.16054     -2.28236        -0.882984      0.150281      0.145272
Mn	      2.24589      4.33448     -2.27787         0.460421     -0.517800     -0.186105
O	      2.28346      2.27108     -2.06890         0.667060      0.574699      0.368533
O	      4.26972      4.20063     -2.28849        -0.772131     -0.624627      0.028988
O	      2.07045      4.46585     -4.55548         0.113109     -0.098202      0.409198
O	      4.50632      2.15995      0.01985         0.040793      0.106664     -0.555442
O	      4.34105      0.15558     -2.31818         0.037416      0.705946      0.034026
O	      2.08553      4.23515      0.12234         0.011170     -0.474737     -0.654003
O	      4.53692      2.16690     -4.64005         0.300524      0.156584     -0.050531
O	      2.29502      6.37008     -2.42802         0.100998     -0.777975     -0.127435
