# total energy = -104.64957738 eV
 
CRYSTAL
PRIMVEC
2.155804 4.260305 2.200721 
4.316187 -2.112027 -2.240905 
0.039654 4.255226 -4.433539 
PRIMCOORD
16 1
Li	      2.27949     -0.00447     -2.25703         0.285973      0.150250     -0.062917
Li	      0.06524      2.17198     -2.24778        -0.019669      0.360301      0.180655
Li	      2.32175      2.20990     -4.64870         0.071349     -0.240246     -0.054502
Li	      4.48074      4.38014     -4.57352        -0.030189     -0.057898      0.117323
Mn	      0.06288      0.09961     -0.12020        -0.528203      0.415095      1.834786
Mn	      2.25331      2.17065      0.02225         0.126105      0.361729     -1.237132
Mn	      4.39539      2.18178     -2.30480        -1.053026      0.181516      0.167345
Mn	      2.26796      4.37709     -2.30025         0.531382     -0.636095     -0.228927
O	      2.30590      2.29340     -2.08923         0.785612      0.683148      0.434865
O	      4.31169      4.24191     -2.31098        -0.914187     -0.737762      0.043345
O	      2.09080      4.50974     -4.60025         0.142318     -0.123951      0.486207
O	      4.55061      2.18118      0.02004         0.051660      0.129367     -0.677035
O	      4.38372      0.15711     -2.34096         0.050383      0.814800      0.043801
O	      2.10603      4.27677      0.12354         0.022540     -0.567168     -0.850899
O	      4.58151      2.18821     -4.68565         0.358607      0.191473     -0.046929
O	      2.31757      6.43268     -2.45188         0.119347     -0.924558     -0.149985
