# total energy = -91.75120232 eV
 
CRYSTAL
PRIMVEC
0.000310 2.074238 2.076284 
6.084091 -0.013138 -2.062893 
-2.078460 6.304039 -4.235156 
PRIMCOORD
16 1
Li	      4.07655      2.14987     -2.14917         0.017912     -0.006570      0.004344
Li	     -0.09326      4.28918     -0.14040        -0.003920     -0.018637      0.016843
Li	      0.03724      6.17087     -2.02431         0.001609      0.018450     -0.013432
Li	      1.95122      6.22298     -4.15487        -0.018918      0.007538     -0.005750
Mn	      3.91513      8.34275     -4.19923         0.007464      0.027046     -0.028086
Mn	      2.11316      2.10417     -0.02828        -0.008879     -0.025120      0.027571
Ni	      1.96770      4.21371     -2.14277        -0.066080     -0.082091      0.086313
Ni	      4.05994      4.15937     -4.16154         0.065491      0.081323     -0.083787
O	     -0.02817      4.19290     -2.12035        -0.000953      0.001315     -0.002318
O	      0.01383      1.94095      0.13602        -0.012223     -0.004500     -0.001039
O	      4.02699      6.35963     -4.29419        -0.019407      0.041549     -0.033691
O	      3.97075      4.24669     -2.17276         0.119634     -0.121501      0.121301
O	     -0.06962      6.44484     -4.37679         0.012026      0.001114     -0.003967
O	      4.05318      2.07177      0.00376        -0.000952      0.001130     -0.002097
O	      2.05712      6.20079     -2.05536        -0.115653      0.118547     -0.112034
O	      2.00062      2.01281     -2.00973         0.022852     -0.039593      0.029830
