# total energy = -104.34399056 eV
 
CRYSTAL
PRIMVEC
2.166320 4.281087 2.211456 
4.337241 -2.122330 -2.251837 
0.039848 4.275983 -4.455166 
PRIMCOORD
16 1
Li	      2.30178     -0.00451     -2.27910         0.333394      0.172752     -0.077659
Li	      0.08703      2.18287     -2.28075        -0.017745      0.423214      0.209427
Li	      2.35503      2.25240     -4.68337         0.086341     -0.275633     -0.068212
Li	      4.52456      4.42298     -4.61825        -0.035430     -0.060653      0.142531
Mn	      0.08484      0.11109     -0.15410        -0.611401      0.513448      2.231418
Mn	      2.27534      2.19188      0.02247         0.131221      0.399768     -1.445093
Mn	      4.43837      2.20311     -2.32733        -1.212641      0.213552      0.185946
Mn	      2.29014      4.41989     -2.32275         0.591325     -0.747359     -0.268510
O	      2.32845      2.31583     -2.10966         0.886763      0.775867      0.496485
O	      4.35385      4.28339     -2.33358        -1.034791     -0.839184      0.055073
O	      2.11125      4.55385     -4.64524         0.171320     -0.155845      0.551767
O	      4.59511      2.20251      0.02024         0.061202      0.152894     -0.793701
O	      4.42659      0.15864     -2.36386         0.066374      0.898562      0.057626
O	      2.12662      4.31860      0.12475         0.029222     -0.647215     -1.065048
O	      4.62631      2.20961     -4.73148         0.414820      0.227347     -0.036703
O	      2.34024      6.49559     -2.47586         0.140028     -1.051517     -0.175348
