# total energy = -103.99429181 eV
 
CRYSTAL
PRIMVEC
2.176836 4.301869 2.222191 
4.358296 -2.132632 -2.262768 
0.040041 4.296741 -4.476793 
PRIMCOORD
16 1
Li	      2.32418     -0.00455     -2.30128         0.378146      0.190500     -0.095576
Li	      0.10904      2.19376     -2.31393        -0.016015      0.483864      0.235236
Li	      2.38852      2.29520     -4.71816         0.099832     -0.310680     -0.078572
Li	      4.56860      4.46603     -4.66319        -0.038059     -0.061819      0.163774
Mn	      0.10702      0.12268     -0.18831        -0.682620      0.615154      2.644935
Mn	      2.29749      2.21321      0.02269         0.132243      0.425067     -1.643820
Mn	      4.48157      2.22456     -2.34998        -1.360270      0.246832      0.196457
Mn	      2.31243      4.46291     -2.34535         0.641113     -0.852322     -0.307836
O	      2.35112      2.33837     -2.13020         0.969552      0.858255      0.547907
O	      4.39623      4.32508     -2.35629        -1.142107     -0.923086      0.069071
O	      2.13180      4.59816     -4.69045         0.202193     -0.194685      0.615883
O	      4.63983      2.22394      0.02044         0.066397      0.181904     -0.896864
O	      4.46967      0.16019     -2.38686         0.087174      0.964743      0.070407
O	      2.14732      4.36062      0.12596         0.044253     -0.715708     -1.299203
O	      4.67134      2.23111     -4.77752         0.461640      0.257310     -0.020795
O	      2.36301      6.55881     -2.49996         0.156529     -1.165331     -0.201002
