# total energy = -103.60319873 eV
 
CRYSTAL
PRIMVEC
2.187352 4.322651 2.232926 
4.379350 -2.142935 -2.273699 
0.040235 4.317498 -4.498420 
PRIMCOORD
16 1
Li	      2.34669     -0.00460     -2.32357         0.422934      0.205839     -0.107854
Li	      0.13125      2.20465     -2.34732        -0.015065      0.541968      0.262298
Li	      2.42222      2.33832     -4.75307         0.117061     -0.338405     -0.089505
Li	      4.61285      4.50928     -4.70836        -0.041193     -0.058542      0.187235
Mn	      0.12941      0.13437     -0.22285        -0.742050      0.717373      3.080560
Mn	      2.31974      2.23465      0.02291         0.128616      0.443528     -1.829458
Mn	      4.52498      2.24610     -2.37275        -1.495171      0.277517      0.202087
Mn	      2.33482      4.50613     -2.36807         0.677591     -0.952945     -0.346697
O	      2.37388      2.36102     -2.15083         1.041862      0.929052      0.594235
O	      4.43880      4.36697     -2.37911        -1.229159     -0.993165      0.083989
O	      2.15244      4.64269     -4.73588         0.227647     -0.241722      0.663770
O	      4.68477      2.24548      0.02064         0.065859      0.206135     -0.998998
O	      4.51296      0.16174     -2.40998         0.104227      1.005843      0.087732
O	      2.16812      4.40286      0.12719         0.059007     -0.774370     -1.559968
O	      4.71658      2.25272     -4.82380         0.510445      0.289359     -0.006724
O	      2.38590      6.62234     -2.52417         0.167388     -1.257464     -0.222700
