# total energy = -103.17386531 eV
 
CRYSTAL
PRIMVEC
2.197868 4.343433 2.243661 
4.400405 -2.153237 -2.284630 
0.040428 4.338255 -4.520047 
PRIMCOORD
16 1
Li	      2.36931     -0.00464     -2.34597         0.466719      0.219894     -0.122480
Li	      0.15367      2.21555     -2.38093        -0.014663      0.598051      0.287141
Li	      2.45613      2.38174     -4.78810         0.135698     -0.368931     -0.099211
Li	      4.65731      4.55275     -4.75374        -0.044062     -0.057591      0.208612
Mn	      0.15200      0.14617     -0.25771        -0.780787      0.820329      3.544628
Mn	      2.34210      2.25619      0.02313         0.123465      0.453018     -2.002039
Mn	      4.56859      2.26775     -2.39561        -1.618623      0.308528      0.202395
Mn	      2.35733      4.54957     -2.39089         0.703012     -1.049137     -0.382627
O	      2.39677      2.38377     -2.17156         1.096205      0.989691      0.637525
O	      4.48159      4.40906     -2.40205        -1.306602     -1.059502      0.090661
O	      2.13276      0.34919     -0.26148         0.252292     -0.292020      0.701579
O	      4.72992      2.26713      0.02084         0.059645      0.229057     -1.092631
O	      4.55646      0.16330     -2.43321         0.120481      1.032097      0.107043
O	      2.18902      4.44530      0.12841         0.073112     -0.818947     -1.850400
O	      4.76205      2.27443     -4.87029         0.554661      0.325079      0.015410
O	      2.40890      6.68616     -2.54850         0.179449     -1.329617     -0.245604
