# total energy = -102.70797318 eV
 
CRYSTAL
PRIMVEC
2.208384 4.364215 2.254397 
4.421459 -2.163540 -2.295562 
0.040621 4.359012 -4.541674 
PRIMCOORD
16 1
Li	      2.39204     -0.00469     -2.36847         0.506638      0.231511     -0.137520
Li	      0.17630      2.22645     -2.41476        -0.013882      0.653561      0.311150
Li	      2.49026      2.42546     -4.82324         0.147638     -0.394716     -0.110354
Li	      4.70198      4.59642     -4.79934        -0.048942     -0.053021      0.228515
Mn	      0.17481      0.15808     -0.29290        -0.806158      0.922282      4.036561
Mn	      2.36456      2.27783      0.02335         0.117371      0.457310     -2.165185
Mn	      4.61241      2.28950     -2.41859        -1.732243      0.337053      0.196524
Mn	      2.37994      4.59320     -2.41383         0.722133     -1.141509     -0.417602
O	      2.41975      2.40664     -2.19239         1.139334      1.044923      0.673477
O	      4.52457      4.45135     -2.42509        -1.372350     -1.118413      0.105739
O	      2.15341      0.37339     -0.28571         0.279135     -0.346950      0.732832
O	      4.77530      2.28887      0.02104         0.055142      0.250383     -1.179834
O	      4.60017      0.16487     -2.45655         0.143827      1.046140      0.117218
O	      2.21001      4.48794      0.12964         0.081617     -0.847614     -2.174556
O	      4.80772      2.29625     -4.91701         0.587909      0.351696      0.044684
O	      2.43201      6.75030     -2.57295         0.192832     -1.392636     -0.261648
