# total energy = -102.95583959 eV
 
CRYSTAL
PRIMVEC
3.991215 -0.000109 -0.000173 
1.995730 3.971771 -6.139014 
-1.995811 4.046876 2.100350 
PRIMCOORD
16 1
Li	     -0.00044      3.92891     -0.08700        -0.519375      0.311994      0.135129
Li	      1.91546      3.88069     -1.97139        -0.233484      0.303658      0.174769
Li	     -0.00149      5.74660     -1.88431        -0.581576      0.123104      0.077618
Li	      1.91565      5.69944     -3.76665        -0.283319      0.274976      0.035711
Mn	      3.83068      7.61582     -3.85573         0.292041      1.763345     -0.760319
Mn	      1.91530      2.01206      0.00042         0.744136     -1.291336      2.188579
Mn	      3.83088      1.93059     -2.00112         1.731339     -2.834696     -0.657921
Mn	      3.83114      3.81195     -3.87088         1.107747     -0.907818     -1.640382
O	      3.83154      3.76963     -2.09387         0.525537      1.449917      2.164655
O	     -0.00023      1.98868     -0.16533        -1.619987     -0.377872      2.030603
O	      1.91504      5.85768     -1.76164        -0.152475      0.530086     -0.466936
O	      1.91459      3.97715      0.14489        -0.034495      0.884881      0.855584
O	      1.91530      3.81697     -4.01044        -1.251845     -0.259209      0.615474
O	      3.83137      5.65055     -3.99917         0.524338      1.159983     -0.097779
O	      1.91550      1.92516     -1.86145        -0.653903     -0.682156     -2.060289
O	      3.83092      3.75481     -5.70678         0.405319     -0.448856     -2.594497
