# total energy = -103.55624778 eV
 
CRYSTAL
PRIMVEC
4.012002 -0.000110 -0.000174 
2.006124 3.992458 -6.170988 
-2.006206 4.067954 2.111290 
PRIMCOORD
16 1
Li	     -0.00045      3.96995     -0.08791        -0.440702      0.257514      0.100676
Li	      1.93547      3.92122     -1.99198        -0.189169      0.260287      0.153281
Li	     -0.00151      5.80661     -1.90399        -0.490564      0.098229      0.059767
Li	      1.93565      5.75896     -3.80599        -0.229293      0.218740      0.042799
Mn	      3.87068      7.69536     -3.89599         0.268181      1.507058     -0.667477
Mn	      1.93530      2.03308      0.00043         0.587387     -1.075093      1.809859
Mn	      3.87088      1.95075     -2.02201         1.453627     -2.391420     -0.503325
Mn	      3.87115      3.85176     -3.91131         0.905823     -0.724937     -1.409828
O	      3.87155      3.80900     -2.11573         0.434912      1.192342      1.780497
O	     -0.00023      2.00945     -0.16706        -1.366719     -0.316379      1.705844
O	      1.93504      5.91886     -1.78004        -0.144482      0.460421     -0.395904
O	      1.93458      4.01869      0.14641        -0.052333      0.732232      0.726208
O	      1.93530      3.85684     -4.05232        -1.025875     -0.215428      0.579772
O	      3.87139      5.70957     -4.04094         0.439946      0.962726     -0.069043
O	      1.93551      1.94527     -1.88089        -0.506821     -0.570160     -1.745223
O	      3.87093      3.79402     -5.76638         0.356082     -0.396132     -2.167902
