# total energy = -104.46110660 eV
 
CRYSTAL
PRIMVEC
4.053578 -0.000111 -0.000176 
2.026913 4.033830 -6.234936 
-2.026996 4.110109 2.133168 
PRIMCOORD
16 1
Li	     -0.00046      4.05265     -0.08974        -0.295322      0.161649      0.040190
Li	      1.97579      4.00291     -2.03348        -0.111330      0.175090      0.112310
Li	     -0.00154      5.92758     -1.94366        -0.328377      0.054463      0.032372
Li	      1.97598      5.87894     -3.88528        -0.134083      0.131144      0.049390
Mn	      3.95132      7.85568     -3.97716         0.210410      1.030084     -0.480563
Mn	      1.97562      2.07543      0.00044         0.340500     -0.696495      1.152703
Mn	      3.95153      1.99140     -2.06414         0.960461     -1.591591     -0.237474
Mn	      3.95180      3.93200     -3.99279         0.559908     -0.427008     -0.992956
O	      3.95221      3.88835     -2.15981         0.277878      0.752674      1.104197
O	     -0.00024      2.05131     -0.17054        -0.909724     -0.209158      1.120517
O	      1.97535      6.04216     -1.81712        -0.122661      0.333360     -0.257379
O	      1.97489      4.10241      0.14945        -0.063674      0.472578      0.483146
O	      1.97562      3.93719     -4.13675        -0.642499     -0.132705      0.496075
O	      3.95204      5.82852     -4.12512         0.288553      0.605711     -0.025284
O	      1.97583      1.98580     -1.92008        -0.283441     -0.370490     -1.190023
O	      3.95157      3.87307     -5.88652         0.253402     -0.289306     -1.407221
