# total energy = -105.17836913 eV
 
CRYSTAL
PRIMVEC
4.115940 -0.000113 -0.000179 
2.058097 4.095889 -6.330858 
-2.058180 4.173341 2.165986 
PRIMCOORD
16 1
Li	     -0.00047      4.17831     -0.09253        -0.106315      0.058230     -0.011170
Li	      2.03705      4.12702     -2.09653        -0.030832      0.069342      0.047163
Li	     -0.00159      6.11137     -2.00392        -0.116957      0.008668      0.005828
Li	      2.03724      6.06121     -4.00574        -0.041695      0.033062      0.042607
Mn	      4.07384      8.09925     -4.10047         0.093909      0.391724     -0.171997
Mn	      2.03687      2.13979      0.00045         0.093127     -0.239656      0.365363
Mn	      4.07405      2.05314     -2.12814         0.338460     -0.578524      0.029136
Mn	      4.07433      4.05391     -4.11659         0.179138     -0.116845     -0.440482
O	      4.07476      4.00892     -2.22678         0.092500      0.250673      0.340994
O	     -0.00024      2.11491     -0.17583        -0.326763     -0.062062      0.407240
O	      2.03660      6.22950     -1.87346        -0.055250      0.135449     -0.073397
O	      2.03612      4.22961      0.15408        -0.039615      0.198227      0.132102
O	      2.03688      4.05926     -4.26501        -0.211049     -0.043730      0.345440
O	      4.07458      6.00923     -4.25303         0.101126      0.160136      0.034342
O	      2.03709      2.04737     -1.97962        -0.072517     -0.129330     -0.550217
O	      4.07410      3.99315     -6.06903         0.102734     -0.135365     -0.502952
