# total energy = -105.26916970 eV
 
CRYSTAL
PRIMVEC
4.178303 -0.000114 -0.000181 
2.089280 4.157948 -6.426780 
-2.089365 4.236574 2.198804 
PRIMCOORD
16 1
Li	     -0.00048      4.30589     -0.09535         0.049287     -0.010880     -0.033864
Li	      2.09925      4.25303     -2.16054         0.009928     -0.021272     -0.015753
Li	     -0.00164      6.29797     -2.06510         0.059491     -0.013866     -0.005791
Li	      2.09944      6.24628     -4.12804         0.011697     -0.029025      0.021191
Mn	      0.01992      8.34666     -4.22549        -0.048495     -0.185618      0.165371
Mn	      2.09906      2.20512      0.00046        -0.028395      0.100449     -0.234567
Mn	      4.19844      2.11582     -2.19311        -0.144251      0.238791      0.170303
Mn	      4.19873      4.17769     -4.24228        -0.073638      0.065209      0.005452
O	      4.19917      4.13131     -2.29477        -0.042930     -0.108029     -0.177077
O	     -0.00025      2.17948     -0.18120         0.142678      0.064993     -0.116349
O	      2.09879      6.41971     -1.93067         0.031809     -0.063323      0.070589
O	      2.09829      4.35875      0.15880         0.031375      0.025275     -0.188831
O	      2.09907      4.18320     -4.39523         0.085651      0.032089      0.154207
O	      4.19898      6.19271     -4.38288        -0.048915     -0.173364      0.103677
O	      2.09929      2.10988     -2.04006         0.013661      0.052032     -0.083341
O	      4.19849      4.11507     -6.25433        -0.048954      0.026539      0.164784
