# total energy = -105.18423381 eV
 
CRYSTAL
PRIMVEC
4.199091 -0.000115 -0.000182 
2.099674 4.178634 -6.458754 
-2.099760 4.257651 2.209744 
PRIMCOORD
16 1
Li	     -0.00049      4.34883     -0.09630         0.096638     -0.027242     -0.034062
Li	      2.12019      4.29545     -2.18209         0.014360     -0.042952     -0.036798
Li	     -0.00165      6.36079     -2.08570         0.108261     -0.022475     -0.006409
Li	      2.12039      6.30859     -4.16922         0.022122     -0.040370      0.008808
Mn	     -2.05867      4.25128      2.19111        -0.106002     -0.365337      0.282795
Mn	      2.12000      2.22712      0.00047        -0.044035      0.189461     -0.402990
Mn	      4.24032      2.13693     -2.21499        -0.274862      0.476024      0.188063
Mn	      4.24061      4.21936     -4.28460        -0.135949      0.104442      0.143327
O	      4.24106      4.17252     -2.31766        -0.077766     -0.200662     -0.295662
O	     -0.00025      2.20123     -0.18301         0.275910      0.101577     -0.250421
O	      2.11972      6.48374     -1.94992         0.063847     -0.135303      0.104275
O	      2.11922      4.40223      0.16038         0.061356     -0.018709     -0.282549
O	      2.12001      4.22493     -4.43908         0.161250      0.046532      0.068299
O	      4.24087      6.25448     -4.42660        -0.088340     -0.249745      0.124715
O	      2.12023      2.13093     -2.06041         0.022281      0.102702      0.049813
O	      4.24037      4.15612     -6.31672        -0.099070      0.082058      0.338796
