# total energy = -104.87322832 eV
 
CRYSTAL
PRIMVEC
4.240666 -0.000116 -0.000184 
2.120463 4.220007 -6.522702 
-2.120549 4.299806 2.231622 
PRIMCOORD
16 1
Li	     -0.00050      4.43538     -0.09822         0.185848     -0.054156     -0.032315
Li	      2.16238      4.38093     -2.22551         0.020311     -0.092702     -0.073922
Li	     -0.00169      6.48737     -2.12721         0.201450     -0.028725     -0.003279
Li	      2.16259      6.43413     -4.25220         0.030381     -0.051590     -0.005645
Mn	      0.08390      0.07786     -0.06149        -0.226950     -0.697631      0.509019
Mn	      2.16219      2.27143      0.00048        -0.049420      0.329911     -0.712051
Mn	      4.32470      2.17946     -2.25907        -0.497677      0.914179      0.170418
Mn	      4.32500      4.30333     -4.36986        -0.238094      0.142072      0.419799
O	      4.32545      4.25556     -2.36378        -0.129727     -0.348855     -0.456923
O	     -0.00026      2.24503     -0.18665         0.511999      0.146621     -0.449066
O	      2.16190      6.61277     -1.98873         0.131851     -0.258778      0.131196
O	      2.16139      4.48983      0.16357         0.126237     -0.110301     -0.382866
O	      2.16219      4.30901     -4.52741         0.287515      0.086658     -0.197597
O	      4.32526      6.37894     -4.51469        -0.160791     -0.356460      0.173790
O	      2.16242      2.17334     -2.10141         0.013861      0.184698      0.296425
O	      4.32475      4.23883     -6.44242        -0.206795      0.195060      0.613014
