# total energy = -104.65767251 eV
 
CRYSTAL
PRIMVEC
4.261453 -0.000117 -0.000185 
2.130858 4.240693 -6.554676 
-2.130944 4.320884 2.242562 
PRIMCOORD
16 1
Li	     -0.00050      4.47897     -0.09918         0.226559     -0.063928     -0.026374
Li	      2.18363      4.42399     -2.24739         0.019554     -0.113445     -0.095928
Li	     -0.00170      6.55113     -2.14811         0.243536     -0.034309      0.001096
Li	      2.18384      6.49737     -4.29398         0.032689     -0.053692     -0.015987
Mn	      0.10561      0.12059     -0.08323        -0.293628     -0.859942      0.624200
Mn	      2.18344      2.29376      0.00049        -0.039017      0.384952     -0.854963
Mn	      4.36720      2.20088     -2.28127        -0.589604      1.113438      0.142762
Mn	      4.36751      4.34562     -4.41281        -0.279414      0.145748      0.546417
O	      4.36796      4.29738     -2.38701        -0.150682     -0.410076     -0.501168
O	     -0.00026      2.26709     -0.18848         0.614294      0.156197     -0.517877
O	      2.18315      6.67776     -2.00827         0.161996     -0.312161      0.132027
O	      2.18263      4.53396      0.16518         0.166565     -0.145299     -0.409737
O	      2.18345      4.35136     -4.57191         0.339360      0.106524     -0.344129
O	      4.36777      6.44164     -4.55906        -0.192392     -0.389604      0.197779
O	      2.18368      2.19469     -2.12206         0.000423      0.222587      0.402271
O	      4.36726      4.28049     -6.50574        -0.260239      0.253010      0.719611
