# total energy = -104.40623207 eV
 
CRYSTAL
PRIMVEC
4.282241 -0.000117 -0.000186 
2.141252 4.261380 -6.586650 
-2.141339 4.341961 2.253501 
PRIMCOORD
16 1
Li	     -0.00051      4.52277     -0.10015         0.266578     -0.069280     -0.020956
Li	      2.20498      4.46726     -2.26937         0.018652     -0.131806     -0.117613
Li	     -0.00172      6.61519     -2.16912         0.280950     -0.033466      0.006380
Li	      2.20520      6.56091     -4.33598         0.031681     -0.054509     -0.026853
Mn	      0.12753      0.16374     -0.10518        -0.363890     -1.026653      0.745683
Mn	      2.20479      2.31619      0.00049        -0.018512      0.435117     -0.989613
Mn	      4.40991      2.22240     -2.30358        -0.668339      1.296028      0.106113
Mn	      4.41022      4.38812     -4.45596        -0.317560      0.137132      0.659322
O	      0.12844      4.33953     -2.41017        -0.166705     -0.458202     -0.541396
O	     -0.00026      2.28927     -0.19032         0.705726      0.162772     -0.569133
O	      2.20450      6.74307     -2.02791         0.192159     -0.355643      0.124221
O	      2.20398      4.57830      0.16679         0.211696     -0.174557     -0.437055
O	      2.20480      4.39391     -4.61662         0.385944      0.131482     -0.477057
O	      4.41048      6.50463     -4.60365        -0.222317     -0.421457      0.218732
O	      2.20503      2.21616     -2.14281        -0.017303      0.254221      0.495251
O	      2.26871      0.06097      0.01729        -0.318761      0.308820      0.823974
