# total energy = -90.23365728 eV
 
CRYSTAL
PRIMVEC
0.000104 2.086091 2.083937 
8.254520 -4.209730 4.205385 
2.017861 2.070320 -4.152014 
PRIMCOORD
16 1
Li	      4.20395      1.95072     -1.94677        -0.162650      0.033889     -0.038318
Li	      4.14090     -0.05963      0.06292        -0.190082      0.073507     -0.076194
Li	      6.15368     -2.07896      4.15736         0.190676     -0.074107      0.076305
Li	      8.10832     -2.02054      2.01647         0.162889     -0.034006      0.037523
Mn	     10.19095     -0.03682      2.12337         0.243131     -0.094903      0.075504
Mn	      2.12171      2.05677      0.02825        -0.244090      0.092855     -0.075513
Ni	      6.13790      2.03639      0.04818        -0.217516      0.203053     -0.197947
Ni	      6.17450     -0.01931      2.10287         0.217504     -0.202634      0.199147
O	      2.03074      2.06956     -2.06706         0.000372      0.004771     -0.002818
O	      6.15626     -0.03453      0.03364        -0.000472      0.001149      0.002875
O	      6.17315     -2.00166      2.00109        -0.125122     -0.360806      0.358110
O	      8.35050     -0.01976      2.10194        -0.276782      0.047914     -0.043630
O	      8.35422     -2.21452      4.29829         0.095735      0.153563     -0.162906
O	      1.94074      0.07964     -0.07956        -0.095450     -0.158131      0.163131
O	      3.96243      2.03765      0.05051         0.274406     -0.047725      0.042647
O	      4.12078     -0.13754      2.21785         0.127451      0.361612     -0.357914
