# total energy = -104.12195401 eV
 
CRYSTAL
PRIMVEC
4.303028 -0.000118 -0.000187 
2.151646 4.282066 -6.618624 
-2.151734 4.363039 2.264440 
PRIMCOORD
16 1
Li	     -0.00051      4.56679     -0.10113         0.303558     -0.072317     -0.010562
Li	      2.22644      4.51073     -2.29146         0.013684     -0.148562     -0.135855
Li	     -0.00174      6.67958     -2.19024         0.316870     -0.031771      0.010484
Li	      2.22666      6.62476     -4.37818         0.026751     -0.053584     -0.033143
Mn	      0.14966      0.20729     -0.12734        -0.440990     -1.199542      0.863287
Mn	      2.22625      2.33873      0.00049         0.013343      0.482826     -1.112917
Mn	      4.45283      2.24403     -2.32600        -0.733193      1.456463      0.068861
Mn	      4.45314      4.43083     -4.49933        -0.347985      0.126268      0.747706
O	      0.15058      4.38176     -2.43363        -0.177025     -0.498837     -0.572785
O	     -0.00027      2.31155     -0.19218         0.786567      0.174474     -0.602824
O	      2.22595      6.80870     -2.04765         0.223635     -0.393757      0.112700
O	      2.22543      4.62286      0.16842         0.257819     -0.198191     -0.468083
O	      2.22626      4.43668     -4.66156         0.427524      0.161015     -0.592309
O	      4.45341      6.56794     -4.64845        -0.249945     -0.449517      0.240883
O	      2.22649      2.23773     -2.16367        -0.042455      0.283373      0.572063
O	      2.30124      0.08235     -0.01468        -0.378158      0.361659      0.912494
