# total energy = -103.80742699 eV
 
CRYSTAL
PRIMVEC
4.323816 -0.000118 -0.000188 
2.162041 4.302752 -6.650598 
-2.162129 4.384116 2.275380 
PRIMCOORD
16 1
Li	     -0.00052      4.61102     -0.10210         0.341926     -0.069995     -0.001070
Li	      2.24801      4.55442     -2.31364         0.005598     -0.165758     -0.154229
Li	     -0.00175      6.74427     -2.21145         0.349907     -0.027741      0.013285
Li	      2.24822      6.68892     -4.42058         0.019550     -0.049017     -0.040535
Mn	      0.17200      0.25127     -0.14972        -0.520156     -1.364242      0.977292
Mn	      2.24781      2.36138      0.00050         0.052707      0.520289     -1.233810
Mn	      4.49596      2.26576     -2.34853        -0.785483      1.598399      0.022278
Mn	      4.49627      4.47374     -4.54291        -0.375062      0.101584      0.826637
O	      0.17292      4.42420     -2.45720        -0.184035     -0.532993     -0.591282
O	     -0.00027      2.33393     -0.19404         0.854037      0.181189     -0.618654
O	      2.24751      6.87464     -2.06748         0.257201     -0.416098      0.086588
O	      2.24698      4.66763      0.17005         0.307562     -0.214533     -0.491812
O	      2.24782      4.47964     -4.70670         0.460090      0.186655     -0.703243
O	      4.49654      6.63155     -4.69347        -0.275626     -0.469761      0.268013
O	      2.24806      2.25940     -2.18463        -0.070207      0.303831      0.640883
O	      2.33397      0.10394     -0.04695        -0.438009      0.418191      0.999661
