# total energy = -103.46673607 eV
 
CRYSTAL
PRIMVEC
4.344604 -0.000119 -0.000189 
2.172435 4.323438 -6.682572 
-2.172524 4.405193 2.286319 
PRIMCOORD
16 1
Li	     -0.00053      4.65546     -0.10308         0.379866     -0.066132      0.011042
Li	      2.26967      4.59832     -2.33594        -0.005700     -0.179808     -0.174434
Li	     -0.00177      6.80927     -2.23276         0.378332     -0.028056      0.016809
Li	      2.26989      6.75339     -4.46319         0.009583     -0.042299     -0.050057
Mn	      0.19454      0.29565     -0.17230        -0.601778     -1.524438      1.086753
Mn	      2.26948      2.38414      0.00050         0.101316      0.552746     -1.348864
Mn	      4.53930      2.28760     -2.37117        -0.824615      1.723065     -0.030260
Mn	      4.53961      4.51686     -4.58669        -0.395195      0.060874      0.901778
O	      0.19548      4.46684     -2.48088        -0.187973     -0.554796     -0.604694
O	     -0.00027      2.35643     -0.19591         0.909395      0.179048     -0.612896
O	      2.26918      6.94090     -2.08741         0.286069     -0.413186      0.048980
O	      2.26864      4.71262      0.17169         0.359516     -0.224769     -0.508945
O	      2.26948      4.52282     -4.75206         0.490637      0.217822     -0.811001
O	      4.53988      6.69547     -4.73871        -0.298647     -0.491800      0.301073
O	      2.26973      2.28118     -2.20568        -0.099203      0.323570      0.703059
O	      2.36691      0.12572     -0.07953        -0.501602      0.468159      1.071656
