# total energy = -103.10205718 eV
 
CRYSTAL
PRIMVEC
4.365391 -0.000120 -0.000190 
2.182830 4.344125 -6.714546 
-2.182918 4.426271 2.297258 
PRIMCOORD
16 1
Li	     -0.00053      4.70012     -0.10408         0.417322     -0.064905      0.023617
Li	      2.29145      4.64243     -2.35836        -0.018232     -0.193705     -0.194558
Li	     -0.00179      6.87459     -2.25418         0.407148     -0.023061      0.019617
Li	      2.29167      6.81818     -4.50600         0.002692     -0.037771     -0.057259
Mn	      0.21729      0.34045     -0.19508        -0.683707     -1.694656      1.209790
Mn	      2.29125      2.40701      0.00051         0.160388      0.585196     -1.453170
Mn	      4.58284      2.30954     -2.39391        -0.852627      1.822188     -0.082343
Mn	      4.58315      4.56019     -4.63069        -0.408140      0.009655      0.956512
O	      0.21824      4.50969     -2.50469        -0.190633     -0.557756     -0.623598
O	     -0.00027      2.37903     -0.19779         0.953893      0.197296     -0.599656
O	      2.29094      7.00748     -2.10743         0.313527     -0.393418      0.004964
O	      2.29040      4.75782      0.17333         0.415789     -0.226164     -0.552171
O	      2.29125      4.56621     -4.79765         0.517685      0.252670     -0.888617
O	      4.58343      6.75969     -4.78416        -0.326769     -0.527335      0.328280
O	      2.29150      2.30306     -2.22684        -0.141516      0.338266      0.760765
O	      2.40006      0.14771     -0.11241        -0.566820      0.513500      1.147825
