# total energy = -101.52367573 eV
 
CRYSTAL
PRIMVEC
2.105074 3.897183 1.985840 
4.171505 -1.919535 -2.004096 
0.034936 3.882952 -3.981016 
PRIMCOORD
16 1
Li	      2.12660      0.01706     -1.94685        -0.770213     -1.190056      0.181332
Li	      5.80890      3.69891     -1.88236         0.958337     -0.250983     -0.171355
Li	      2.14766      3.73240     -1.85473        -0.330666      0.863381     -0.201379
Li	      3.98885      3.69444     -3.76255         0.205963      0.996134     -0.600785
Mn	      4.00152      1.88839     -5.66010         0.815667     -1.123647     -2.498468
Mn	      1.99119      1.83833     -0.04771        -0.649245     -1.962866      4.921774
Mn	      3.97803      1.88272     -1.91343         4.216090     -0.963065      0.887777
Mn	      1.99758      1.83949     -3.76200        -4.462876     -1.043905     -2.097328
O	      2.18795      1.84445     -1.79122        -2.659541     -0.406708     -1.760212
O	      3.98383      3.80327     -1.91424         1.047144      0.742245      0.215765
O	      1.85752      3.70754     -3.76017         0.112374      1.409926     -0.917438
O	      4.09534      1.87045     -0.10621         0.388773     -0.095041      2.366287
O	      3.99452     -0.08086     -1.89061         0.051371     -0.414256      0.006563
O	      1.78527      3.62050     -0.07136        -0.534556      2.568734      1.058693
O	      3.78050      1.86290     -3.69515         2.439710     -0.589480     -1.840117
O	      2.18726      5.62213     -2.01117        -0.828333      1.459589      0.448890
