# total energy = -103.03866830 eV
 
CRYSTAL
PRIMVEC
2.127232 3.938206 2.006743 
4.215416 -1.939741 -2.025191 
0.035304 3.923825 -4.022922 
PRIMCOORD
16 1
Li	      2.17160      0.01742     -1.98805        -0.577456     -0.864689      0.125665
Li	      5.93184      3.77720     -1.92219         0.684983     -0.200943     -0.128692
Li	      2.19311      3.81139     -1.89398        -0.222645      0.643876     -0.133666
Li	      4.07327      3.77263     -3.84218         0.151027      0.721926     -0.417443
Mn	      4.08620      1.92835     -5.77988         0.618761     -0.922846     -1.992545
Mn	      2.03332      1.87723     -0.04872        -0.395682     -1.312296      3.584758
Mn	      4.06222      1.92256     -1.95393         3.117740     -0.676577      0.619967
Mn	      2.03986      1.87841     -3.84161        -3.286180     -0.755927     -1.494438
O	      2.23426      1.88348     -1.82913        -1.995839     -0.325471     -1.254735
O	      4.06814      3.88376     -1.95476         0.828235      0.624396      0.148995
O	      1.89683      3.78600     -3.83974         0.026129      1.067235     -0.654949
O	      4.18202      1.91003     -0.10846         0.312157     -0.071865      1.752356
O	      4.07905     -0.08257     -1.93062         0.007251     -0.507308      0.055693
O	      1.82306      3.69713     -0.07287        -0.346572      1.806937      0.806064
O	      3.86051      1.90233     -3.77335         1.757732     -0.436746     -1.397717
O	      2.23355      5.74112     -2.05373        -0.679641      1.210298      0.380688
