# total energy = -103.63836926 eV
 
CRYSTAL
PRIMVEC
2.138312 3.958718 2.017195 
4.237371 -1.949844 -2.035739 
0.035488 3.944262 -4.043874 
PRIMCOORD
16 1
Li	      2.19428      0.01760     -2.00881        -0.486637     -0.715867      0.103527
Li	      5.99379      3.81664     -1.94227         0.560885     -0.178852     -0.110537
Li	      2.21602      3.85119     -1.91377        -0.179388      0.543421     -0.102696
Li	      4.11581      3.81203     -3.88230         0.130254      0.601152     -0.338266
Mn	      4.12888      1.94850     -5.84025         0.528892     -0.819898     -1.738414
Mn	      2.05456      1.89684     -0.04923        -0.296597     -1.044958      2.994490
Mn	      4.10464      1.94264     -1.97433         2.619498     -0.552868      0.508495
Mn	      2.06116      1.89804     -3.88173        -2.757279     -0.631220     -1.233318
O	      2.25759      1.90315     -1.84824        -1.686678     -0.284274     -1.036401
O	      4.11063      3.92432     -1.97517         0.721929      0.562794      0.115796
O	      1.91664      3.82554     -3.87985        -0.009762      0.902042     -0.540008
O	      4.22569      1.92998     -0.10959         0.280715     -0.065124      1.469648
O	      4.12166     -0.08343     -1.95078        -0.012731     -0.522395      0.067796
O	      1.84210      3.73574     -0.07363        -0.263212      1.482881      0.691515
O	      3.90083      1.92220     -3.81276         1.455958     -0.361092     -1.192351
O	      2.25688      5.80108     -2.07518        -0.605847      1.084258      0.340724
