# total energy = -104.14125431 eV
 
CRYSTAL
PRIMVEC
2.149391 3.979229 2.027647 
4.259326 -1.959947 -2.046287 
0.035672 3.964699 -4.064827 
PRIMCOORD
16 1
Li	      2.21708      0.01779     -2.02969        -0.404117     -0.583630      0.084345
Li	      6.05606      3.85629     -1.96245         0.454858     -0.155452     -0.091416
Li	      2.23904      3.89121     -1.93365        -0.137200      0.454184     -0.077106
Li	      4.15857      3.85163     -3.92264         0.108238      0.491482     -0.272035
Mn	      4.17177      1.96874     -5.90092         0.443760     -0.712097     -1.486625
Mn	      2.07591      1.91655     -0.04974        -0.216480     -0.812307      2.447653
Mn	      4.14729      1.96282     -1.99485         2.150122     -0.442728      0.410937
Mn	      2.08258      1.91776     -3.92206        -2.265369     -0.517539     -0.994915
O	      2.28105      1.92292     -1.86743        -1.389009     -0.242619     -0.835631
O	      4.15334      3.96509     -1.99570         0.611694      0.493118      0.089300
O	      1.93656      3.86529     -3.92015        -0.033309      0.746175     -0.434358
O	      4.26960      1.95003     -0.11073         0.250787     -0.054156      1.205992
O	      4.16448     -0.08430     -1.97105        -0.024469     -0.509467      0.073368
O	      1.86123      3.77455     -0.07440        -0.198410      1.190964      0.579987
O	      3.94135      1.94217     -3.85238         1.176879     -0.296112     -0.994589
O	      2.28032      5.86135     -2.09673        -0.527973      0.950182      0.295092
