# total energy = -104.55325659 eV
 
CRYSTAL
PRIMVEC
2.160470 3.999741 2.038098 
4.281282 -1.970049 -2.056835 
0.035856 3.985135 -4.085780 
PRIMCOORD
16 1
Li	      2.24000      0.01797     -2.05066        -0.324350     -0.464348      0.065004
Li	      6.11866      3.89615     -1.98273         0.359911     -0.128325     -0.070638
Li	      2.26219      3.93142     -1.95364        -0.105074      0.365458     -0.057320
Li	      4.20156      3.89145     -3.96318         0.089159      0.391954     -0.216521
Mn	      4.21490      1.98909     -5.96192         0.359115     -0.603852     -1.233934
Mn	      2.09736      1.93636     -0.05026        -0.149029     -0.610593      1.946542
Mn	      4.19016      1.98311     -2.01546         1.714840     -0.343340      0.324892
Mn	      2.10410      1.93758     -3.96260        -1.811747     -0.409560     -0.784557
O	      2.30462      1.94280     -1.88674        -1.112669     -0.204074     -0.651133
O	      4.19627      4.00608     -2.01632         0.502548      0.420534      0.067072
O	      1.95657      3.90524     -3.96068        -0.044858      0.597598     -0.342179
O	      4.31372      1.97019     -0.11188         0.219476     -0.045600      0.960099
O	      4.20752     -0.08517     -1.99142        -0.033525     -0.469077      0.069098
O	      1.88047      3.81357     -0.07516        -0.148696      0.929264      0.474156
O	      3.98209      1.96224     -3.89220         0.931430     -0.236004     -0.802980
O	      2.30389      5.92193     -2.11841        -0.446533      0.809964      0.252399
