# total energy = -89.58704774 eV
 
CRYSTAL
PRIMVEC
0.000003 2.113935 -2.114276 
-0.000002 2.113937 2.114279 
16.532934 -0.000003 0.000016 
PRIMCOORD
16 1
Li	      4.40221      0.00108     -0.00027        -0.020749     -0.000233      0.000862
Li	      6.18805      2.11452      0.00084        -0.058710     -0.000527     -0.000446
Li	     12.41189      2.11384     -2.11153         0.049488      0.000211     -0.001221
Li	     14.20030      2.11424      0.00174        -0.047903      0.000028      0.000013
Mn	     16.38149      0.00073      0.00055        -0.076297     -0.000841      0.000160
Mn	      2.21993      2.11485      0.00010         0.065481     -0.000304      0.000418
Ni	      8.22089      2.11423     -2.11252        -0.057004     -0.000035      0.001036
Ni	     10.37726      2.11405      0.00233         0.093498     -0.000124      0.000721
O	     14.59450      2.11430     -2.11302         0.085721      0.000155     -0.000974
O	      0.13772      2.11476      0.00039         0.019370      0.001369      0.000735
O	     10.19710      2.11407     -2.11193         0.067244     -0.000331     -0.001536
O	     12.25849      2.11389      0.00273         0.096722      0.000106      0.000250
O	      6.34020      2.11442     -2.11308        -0.081253      0.000111     -0.000081
O	      8.40078      2.11420      0.00192        -0.066256     -0.000261     -0.000878
O	      1.93043      0.00094      0.00011        -0.006213     -0.001056      0.000177
O	      4.00646      2.11478     -0.00016        -0.063139      0.001730      0.000763
