# total energy = -104.87961919 eV
 
CRYSTAL
PRIMVEC
2.171550 4.020252 2.048550 
4.303237 -1.980152 -2.067383 
0.036039 4.005572 -4.106733 
PRIMCOORD
16 1
Li	      2.26303      0.01815     -2.07175        -0.250644     -0.352676      0.049968
Li	      6.18157      3.93622     -2.00312         0.273649     -0.100381     -0.054137
Li	      2.28545      3.97185     -1.97373        -0.078851      0.281174     -0.042546
Li	      4.24476      3.93146     -4.00393         0.070124      0.296235     -0.163581
Mn	      4.25823      2.00954     -6.02322         0.278952     -0.488440     -0.981832
Mn	      2.11893      1.95627     -0.05077        -0.091229     -0.437862      1.483980
Mn	      4.23324      2.00350     -2.03619         1.313145     -0.256678      0.247425
Mn	      2.12574      1.95750     -4.00335        -1.389990     -0.309856     -0.593409
O	      2.32832      1.96277     -1.90614        -0.852776     -0.158379     -0.485500
O	      4.23942      4.04727     -2.03705         0.397082      0.344267      0.048504
O	      1.97669      3.94539     -4.00140        -0.047798      0.457342     -0.256143
O	      4.35808      1.99045     -0.11302         0.182662     -0.037910      0.728416
O	      4.25078     -0.08604     -2.01190        -0.038739     -0.409202      0.063129
O	      1.89981      3.85278     -0.07594        -0.100020      0.695815      0.369895
O	      4.02304      1.98242     -3.93222         0.703210     -0.184892     -0.618438
O	      2.32758      5.98282     -2.14019        -0.368778      0.661442      0.204269
