# total energy = -105.12583339 eV
 
CRYSTAL
PRIMVEC
2.182629 4.040764 2.059002 
4.325192 -1.990255 -2.077931 
0.036223 4.026008 -4.127685 
PRIMCOORD
16 1
Li	      2.28618      0.01834     -2.09294        -0.180642     -0.253583      0.035572
Li	      6.24481      3.97648     -2.02361         0.192603     -0.075606     -0.037484
Li	      2.30882      4.01248     -1.99391        -0.056399      0.200351     -0.024042
Li	      4.28818      3.97168     -4.04490         0.056342      0.208148     -0.117599
Mn	      4.30180      2.03010     -6.08484         0.200854     -0.370412     -0.729710
Mn	      2.14060      1.97628     -0.05129        -0.048880     -0.293316      1.059641
Mn	      4.27655      2.02400     -2.05702         0.940014     -0.179853      0.177610
Mn	      2.14749      1.97753     -4.04430        -1.000074     -0.219136     -0.422842
O	      2.35214      1.98285     -1.92564        -0.614669     -0.119201     -0.339558
O	      4.28278      4.08867     -2.05789         0.293670      0.266752      0.032021
O	      1.99691      3.98576     -4.04233        -0.040676      0.327110     -0.179312
O	      4.40267      2.01081     -0.11418         0.144147     -0.031934      0.514943
O	      4.29427     -0.08692     -2.03248        -0.044153     -0.329637      0.053526
O	      1.91925      3.89219     -0.07672        -0.060164      0.491514      0.267674
O	      4.06419      2.00270     -3.97244         0.498841     -0.131157     -0.441014
O	      2.35139      6.04403     -2.16208        -0.280814      0.509959      0.150572
