# total energy = -105.39787532 eV
 
CRYSTAL
PRIMVEC
2.204788 4.081787 2.079906 
4.369103 -2.010461 -2.099026 
0.036591 4.066881 -4.169591 
PRIMCOORD
16 1
Li	      2.33283      0.01871     -2.13565        -0.056521     -0.077859      0.015689
Li	      6.37225      4.05763     -2.06491         0.058390     -0.025477     -0.007125
Li	      2.35594      4.09436     -2.03461        -0.017122      0.059046     -0.002054
Li	      4.37569      4.05273     -4.12744         0.025410      0.059735     -0.044455
Mn	      4.38959      2.07153     -6.20901         0.061148     -0.120633     -0.238733
Mn	      2.18429      2.01661     -0.05234         0.017933     -0.070970      0.314760
Mn	      4.36382      2.06530     -2.09900         0.280413     -0.050321      0.055430
Mn	      2.19131      2.01788     -4.12684        -0.309425     -0.064253     -0.129874
O	      2.40014      2.02332     -1.96494        -0.196646     -0.040463     -0.091220
O	      4.37019      4.17211     -2.09989         0.098668      0.118459      0.011134
O	      2.03767      4.06710     -4.12483        -0.008069      0.087748     -0.050655
O	      4.49251      2.05184     -0.11651         0.055451     -0.012902      0.134730
O	      4.38191     -0.08870     -2.07396        -0.043898     -0.133472      0.021341
O	      1.95841      3.97162     -0.07828         0.002651      0.138905      0.073724
O	      4.14713      2.04357     -4.05351         0.147360     -0.045205     -0.110605
O	      2.39938      6.16737     -2.20621        -0.115743      0.177663      0.047914
