# total energy = -105.32578914 eV
 
CRYSTAL
PRIMVEC
2.238026 4.143321 2.111261 
4.434969 -2.040769 -2.130670 
0.037143 4.128191 -4.232449 
PRIMCOORD
16 1
Li	      2.40370      0.01928     -2.20053         0.104281      0.138709     -0.006559
Li	      6.56583      4.18090     -2.12764        -0.097742      0.042126      0.037864
Li	      2.42751      4.21874     -2.09641         0.015981     -0.128271      0.021635
Li	      4.50862      4.17585     -4.25283        -0.009718     -0.110916      0.040038
Mn	      0.05082      0.04704     -0.03451        -0.120184      0.298531      0.469763
Mn	      2.25064      2.07787     -0.05393         0.052811      0.121867     -0.591797
Mn	      4.49638      2.12804     -2.16276        -0.525059      0.099507     -0.098282
Mn	      2.25788      2.07918     -4.25220         0.530338      0.109570      0.201933
O	      2.47305      2.08478     -2.02463         0.282638      0.062344      0.180196
O	      4.50295      4.29885     -2.16368        -0.173752     -0.070836     -0.004383
O	      2.09956      4.19065     -4.25013         0.068099     -0.219355      0.108790
O	      4.62899      2.11418     -0.12005        -0.087661      0.017086     -0.312424
O	      4.51502     -0.09139     -2.13697        -0.017231      0.193580     -0.039296
O	      2.01791      4.09227     -0.08066         0.084057     -0.240508     -0.207659
O	      4.27312      2.10565     -4.17665        -0.228593      0.058108      0.306196
O	      2.47227      6.35472     -2.27323         0.121735     -0.371542     -0.106014
