# total energy = -105.19141968 eV
 
CRYSTAL
PRIMVEC
2.249105 4.163833 2.121713 
4.456924 -2.050872 -2.141218 
0.037327 4.148628 -4.253402 
PRIMCOORD
16 1
Li	      2.42756      0.01947     -2.22237         0.153052      0.198388     -0.013176
Li	      6.63100      4.22240     -2.14875        -0.136745      0.065596      0.048896
Li	      2.45161      4.26062     -2.11722         0.024794     -0.184004      0.025514
Li	      4.55337      4.21729     -4.29503        -0.022061     -0.158003      0.064071
Mn	      0.07357      0.05789     -0.06651        -0.170119      0.450533      0.698988
Mn	      2.27298      2.09850     -0.05446         0.053740      0.155538     -0.844927
Mn	      4.54101      2.14917     -2.18423        -0.752491      0.142033     -0.143451
Mn	      2.28029      2.09982     -4.29441         0.762098      0.152160      0.288076
O	      2.49760      2.10548     -2.04473         0.410184      0.092910      0.246837
O	      4.54764      4.34152     -2.18516        -0.259382     -0.127071     -0.010145
O	      2.12041      4.23225     -4.29232         0.096683     -0.308221      0.151626
O	      4.67493      2.13516     -0.12124        -0.136567      0.024351     -0.429790
O	      4.55983     -0.09230     -2.15817        -0.011908      0.306160     -0.060902
O	      2.03793      4.13289     -0.08146         0.112140     -0.330788     -0.300491
O	      4.31553      2.12655     -4.21810        -0.316286      0.087138      0.428767
O	      2.49681      6.41780     -2.29579         0.192869     -0.566722     -0.149893
