# total energy = -105.00845807 eV
 
CRYSTAL
PRIMVEC
2.260184 4.184344 2.132165 
4.478879 -2.060975 -2.151766 
0.037510 4.169064 -4.274354 
PRIMCOORD
16 1
Li	      2.45154      0.01967     -2.24432         0.196268      0.255630     -0.019646
Li	      6.69649      4.26410     -2.16998        -0.174248      0.086128      0.060433
Li	      2.47582      4.30270     -2.13813         0.029814     -0.240336      0.029144
Li	      4.59834      4.25894     -4.33746        -0.030390     -0.202384      0.084314
Mn	      0.09655      0.06884     -0.09882        -0.217943      0.612915      0.926279
Mn	      2.29543      2.11922     -0.05500         0.048905      0.175897     -1.077699
Mn	      4.58586      2.17039     -2.20580        -0.961499      0.182528     -0.184109
Mn	      2.30281      2.12056     -4.33682         0.975198      0.189534      0.364856
O	      2.52226      2.12627     -2.06492         0.520220      0.128291      0.302840
O	      4.59255      4.38440     -2.20674        -0.337129     -0.174036     -0.011937
O	      2.14135      4.27404     -4.33471         0.122050     -0.394470      0.188099
O	      4.72110      2.15625     -0.12244        -0.181791      0.034156     -0.535974
O	      4.60487     -0.09321     -2.17949         0.002217      0.411876     -0.076277
O	      2.05806      4.17371     -0.08226         0.134965     -0.412395     -0.390018
O	      4.35815      2.14755     -4.25976        -0.390074      0.110049      0.537287
O	      2.52147      6.48118     -2.31846         0.263437     -0.763382     -0.197593
