# total energy = -104.78087066 eV
 
CRYSTAL
PRIMVEC
2.271264 4.204856 2.142616 
4.500835 -2.071078 -2.162314 
0.037694 4.189501 -4.295307 
PRIMCOORD
16 1
Li	      2.47563      0.01986     -2.26638         0.237104      0.308606     -0.023586
Li	      4.49104      0.10115     -4.33392        -0.203400      0.106612      0.068202
Li	      2.50016      4.34499     -2.15915         0.036178     -0.291421      0.034490
Li	      4.64353      4.30080     -4.38008        -0.038761     -0.237797      0.101755
Mn	      0.11975      0.07991     -0.13145        -0.255159      0.778467      1.144811
Mn	      2.31799      2.14005     -0.05554         0.039043      0.185440     -1.288431
Mn	      4.63093      2.19172     -2.22748        -1.159305      0.219392     -0.225751
Mn	      2.32544      2.14140     -4.37944         1.168112      0.221117      0.433283
O	      2.54706      2.14716     -2.08521         0.611305      0.162751      0.343165
O	      4.63769      4.42749     -2.22843        -0.414934     -0.222133     -0.007839
O	      2.16239      4.31605     -4.37731         0.148631     -0.481039      0.222029
O	      4.76750      2.17744     -0.12364        -0.231268      0.043087     -0.624225
O	      4.65013     -0.09413     -2.20091         0.016213      0.514556     -0.096173
O	      2.07829      4.21473     -0.08307         0.165798     -0.478832     -0.478917
O	      4.40098      2.16866     -4.30163        -0.447468      0.134484      0.635229
O	      2.54625      6.54488     -2.34125         0.327911     -0.963290     -0.238040
