# total energy = -104.51203088 eV
 
CRYSTAL
PRIMVEC
2.282343 4.225367 2.153068 
4.522790 -2.081180 -2.172862 
0.037878 4.209938 -4.316260 
PRIMCOORD
16 1
Li	      2.49984      0.02005     -2.28855         0.275392      0.354340     -0.027244
Li	      4.54609      0.12275     -4.36580        -0.233465      0.126305      0.076920
Li	      2.52460      4.38748     -2.18026         0.038065     -0.338887      0.036128
Li	      4.68895      4.34286     -4.42292        -0.046881     -0.269785      0.120360
Mn	      0.14317      0.09107     -0.16439        -0.290734      0.952817      1.363839
Mn	      2.34066      2.16098     -0.05608         0.025574      0.185142     -1.478417
Mn	      4.67623      2.21315     -2.24926        -1.338284      0.252922     -0.266812
Mn	      2.34818      2.16234     -4.42227         1.337211      0.247584      0.495559
O	      2.57196      2.16816     -2.10560         0.695335      0.192681      0.368519
O	      4.68305      4.47079     -2.25022        -0.488025     -0.266865     -0.005220
O	      2.18354      4.35826     -4.42012         0.177983     -0.564028      0.252372
O	      4.81413      2.19874     -0.12485        -0.276264      0.054821     -0.705353
O	      4.69561     -0.09505     -2.22243         0.027919      0.615866     -0.119399
O	      2.09861      4.25595     -0.08388         0.194414     -0.530024     -0.566114
O	      4.44402      2.18987     -4.34370        -0.486632      0.154443      0.724385
O	      2.57115      6.60889     -2.36415         0.388390     -1.167334     -0.269524
