# total energy = -103.86440138 eV
 
CRYSTAL
PRIMVEC
2.304502 4.266390 2.173972 
4.566700 -2.101386 -2.193957 
0.038246 4.250811 -4.358165 
PRIMCOORD
16 1
Li	      2.54862      0.02045     -2.33320         0.344833      0.434592     -0.030461
Li	      0.09047      2.26795     -2.23592        -0.276344      0.161170      0.090996
Li	      2.57386      4.47308     -2.22280         0.041784     -0.427439      0.036774
Li	      4.78043      4.42760     -4.50922        -0.060385     -0.317899      0.151016
Mn	      0.19067      0.11372     -0.23121        -0.337743      1.319840      1.777721
Mn	      2.38633      2.20314     -0.05718        -0.012399      0.156642     -1.807802
Mn	      4.76746      2.25634     -2.29315        -1.663200      0.323372     -0.343048
Mn	      2.39400      2.20453     -4.50856         1.623630      0.295052      0.589332
O	      2.62215      2.21047     -2.14669         0.831905      0.247998      0.390329
O	      4.77442      4.55803     -2.29413        -0.625027     -0.356052      0.003462
O	      2.22614      4.44330     -4.50637         0.212583     -0.736347      0.303588
O	      4.90806      2.24164     -0.12728        -0.360446      0.070714     -0.824148
O	      4.78722     -0.09690     -2.26580         0.055397      0.805620     -0.160193
O	      2.13956      4.33899     -0.08552         0.261704     -0.591341     -0.727670
O	      4.53074      2.23260     -4.42845        -0.541089      0.189450      0.862470
O	      2.62132      6.73784     -2.41028         0.504798     -1.575371     -0.312364
