# total energy = -103.49217479 eV
 
CRYSTAL
PRIMVEC
2.315581 4.286902 2.184423 
4.588656 -2.111489 -2.204505 
0.038430 4.271247 -4.379118 
PRIMCOORD
16 1
Li	      2.57318      0.02064     -2.35569         0.374485      0.469594     -0.032568
Li	      0.12454      2.30027     -2.25757        -0.294373      0.174368      0.094053
Li	      2.59867      4.51620     -2.24423         0.043381     -0.467712      0.033976
Li	      4.82651      4.47028     -4.55268        -0.063328     -0.340563      0.169484
Mn	      0.21475      0.12519     -0.26509        -0.356363      1.511532      1.971061
Mn	      2.40933      2.22438     -0.05773        -0.033526      0.125329     -1.947285
Mn	      4.81342      2.27809     -2.31525        -1.818247      0.361280     -0.383598
Mn	      2.41708      2.22578     -4.55201         1.740994      0.313553      0.632906
O	      2.64742      2.23178     -2.16738         0.887403      0.276177      0.375789
O	      4.82044      4.60195     -2.31624        -0.685781     -0.397128      0.005105
O	      2.24760      4.48612     -4.54980         0.223350     -0.826809      0.316739
O	      4.95537      2.26324     -0.12852        -0.391154      0.081733     -0.861584
O	      4.83337     -0.09784     -2.28764         0.061039      0.891972     -0.180993
O	      2.16018      4.38081     -0.08634         0.304285     -0.600092     -0.787185
O	      4.57440      2.25411     -4.47113        -0.546849      0.205117      0.906910
O	      2.64658      6.80278     -2.43351         0.554683     -1.778352     -0.312809
