# total energy = -92.55216265 eV
 
CRYSTAL
PRIMVEC
4.057917 -0.000097 -0.000030 
-2.029151 4.293501 -6.148395 
-2.029128 4.271101 2.034496 
PRIMCOORD
16 1
Li	     -0.00069      4.44915     -0.07844         0.000432      0.035527     -0.007729
Li	     -0.00038      2.27450     -2.10519        -0.001766      0.041233     -0.011401
Li	     -0.00157      4.16024     -4.04756        -0.000375     -0.039077      0.010910
Li	     -2.03100      6.25710     -4.03979         0.002351     -0.038425      0.003721
Mn	     -0.00125      8.53367     -4.10147        -0.001025     -0.198554      0.035298
Mn	      2.02805      2.17208     -0.01710         0.000043      0.200224     -0.037922
Ni	     -2.02996      4.29835     -2.06340         0.000528     -0.012835     -0.024531
Ni	     -0.00125      6.40760     -2.05477         0.003005      0.012008      0.023389
O	     -2.03010      6.27679     -2.05942        -0.000467      0.124841     -0.016943
O	      2.02804      4.09968      0.07755         0.002786     -0.005462      0.137098
O	     -0.00145      6.60600     -4.19631        -0.001434      0.006008     -0.130834
O	      2.02832      0.20157     -0.00990        -0.005568      0.142303     -0.003698
O	      2.02771      4.14776     -4.20366         0.000792      0.156010     -0.197632
O	      2.02815      2.28682     -1.94928         0.000934     -0.154001      0.194511
O	     -0.00109      4.42940     -2.05902         0.001914     -0.126904      0.018058
O	     -0.00088      1.93982      0.00483        -0.002150     -0.142897      0.007705
