# total energy = -102.18474515 eV
 
CRYSTAL
PRIMVEC
-0.000182 1.939838 1.940129 
8.934565 1.995521 -1.994496 
0.025420 3.947387 -3.946679 
PRIMCOORD
16 1
Li	      0.02543      1.92352     -1.91707         0.086336     -0.951863      0.711987
Li	      2.17564      3.77782     -1.90766        -0.175076      0.650835     -0.452283
Li	      4.29253      3.80669     -3.80218        -0.521232      0.245714     -0.379048
Li	      6.44879      5.66090     -3.79352        -0.442492      0.324164     -0.143611
Mn	      8.60117      5.65735     -5.65238         1.963721      3.468686     -5.254591
Mn	      2.14639      1.87929     -0.01610        -1.250119     -2.394490      4.078725
Mn	      4.29790      1.91085     -1.90960        -0.303405     -1.546162     -0.910475
Mn	      6.44431      3.84177     -1.97513         1.154772      1.310783      1.142229
O	      4.27822      3.71313     -1.84832        -0.129267      2.596958     -1.163835
O	      6.44822      3.76096     -3.75597         0.065406      1.363976     -2.901230
O	      4.30806      1.97164     -0.10889         0.892170     -1.382131      2.706434
O	      6.43604      2.02131     -2.01821         1.176135     -2.599319      1.408806
O	      0.00818      1.77145      0.09337        -1.940984     -1.016841      1.327777
O	      2.13367      1.81806     -1.81754        -0.511411      0.830168     -2.231392
O	      0.01917      3.82293     -1.95614        -0.464493     -1.427923      3.232980
O	      2.18999      3.86734     -3.86530         0.399939      0.527445     -1.172473
