# total energy = -102.98789243 eV
 
CRYSTAL
PRIMVEC
-0.000183 1.949941 1.950234 
8.981099 2.005915 -2.004884 
0.025553 3.967947 -3.967234 
PRIMCOORD
16 1
Li	      0.02570      1.94361     -1.93709         0.084929     -0.823118      0.633144
Li	      2.19837      3.81727     -1.92758        -0.135566      0.551033     -0.400151
Li	      4.33736      3.84645     -3.84189        -0.454641      0.211554     -0.318781
Li	      6.51614      5.72002     -3.83314        -0.404489      0.259911     -0.116819
Mn	      8.69100      5.71643     -5.71141         1.921966      3.174780     -4.666065
Mn	      2.16881      1.89892     -0.01627        -1.060018     -2.088036      3.496328
Mn	      4.34279      1.93081     -1.92954        -0.280831     -1.271313     -0.711889
Mn	      6.51161      3.88189     -1.99576         0.962406      1.079873      0.906077
O	      4.32290      3.75190     -1.86762        -0.079254      2.164652     -1.014179
O	      6.51556      3.80024     -3.79519         0.051997      1.187129     -2.431998
O	      4.35305      1.99223     -0.11002         0.770443     -1.176466      2.258146
O	      6.50326      2.04242     -2.03929         1.026159     -2.183193      1.215691
O	      0.00827      1.78995      0.09435        -1.754299     -0.953381      1.255273
O	      2.15596      1.83704     -1.83652        -0.421937      0.742253     -1.878680
O	      0.01937      3.86286     -1.97657        -0.561125     -1.328506      2.792767
O	      2.21286      3.90774     -3.90567         0.334260      0.452828     -1.018864
