# total energy = -103.67919566 eV
 
CRYSTAL
PRIMVEC
-0.000184 1.960045 1.960338 
9.027634 2.016308 -2.015272 
0.025685 3.988506 -3.987790 
PRIMCOORD
16 1
Li	      0.02596      1.96380     -1.95722         0.076346     -0.692154      0.547298
Li	      2.22121      3.85693     -1.94761        -0.103962      0.457084     -0.345857
Li	      4.38242      3.88641     -3.88181        -0.389691      0.176264     -0.257776
Li	      6.58384      5.77946     -3.87297        -0.357768      0.207891     -0.095845
Mn	      8.78129      5.77582     -5.77075         1.804543      2.820171     -4.036430
Mn	      2.19134      1.91865     -0.01644        -0.889094     -1.781548      2.936703
Mn	      4.38791      1.95087     -1.94959        -0.250220     -1.022182     -0.544261
Mn	      6.57926      3.92222     -2.01649         0.788353      0.865720      0.699156
O	      4.36781      3.79089     -1.88703        -0.039192      1.774042     -0.867379
O	      6.58325      3.83972     -3.83462         0.038645      1.006635     -1.992499
O	      4.39827      2.01293     -0.11117         0.644275     -0.981221      1.844329
O	      6.57082      2.06364     -2.06048         0.870786     -1.796509      1.029016
O	      0.00835      1.80854      0.09532        -1.529349     -0.866892      1.147671
O	      2.17836      1.85613     -1.85561        -0.340256      0.648603     -1.547877
O	      0.01958      3.90299     -1.99710        -0.599916     -1.196116      2.350776
O	      2.23585      3.94833     -3.94624         0.276499      0.380213     -0.867025
