# total energy = -104.25864334 eV
 
CRYSTAL
PRIMVEC
-0.000185 1.970148 1.970443 
9.074168 2.026701 -2.025660 
0.025818 4.009065 -4.008346 
PRIMCOORD
16 1
Li	      0.02623      1.98410     -1.97745         0.067574     -0.567029      0.460999
Li	      2.24417      3.89680     -1.96774        -0.075027      0.369583     -0.291884
Li	      4.42772      3.92658     -3.92193        -0.322668      0.141105     -0.204701
Li	      6.65189      5.83919     -3.91300        -0.305965      0.157099     -0.076510
Mn	      8.87206      5.83552     -5.83039         1.623609      2.417739     -3.382654
Mn	      2.21399      1.93848     -0.01661        -0.728261     -1.473109      2.398924
Mn	      4.43327      1.97103     -1.96974        -0.214111     -0.798657     -0.401626
Mn	      6.64726      3.96276     -2.03733         0.633618      0.676036      0.522835
O	      4.41295      3.83007     -1.90653        -0.017885      1.413357     -0.719333
O	      6.65129      3.87940     -3.87426         0.022999      0.830589     -1.590387
O	      4.44373      2.03373     -0.11231         0.522543     -0.798463      1.466890
O	      6.63874      2.08497     -2.08177         0.717872     -1.442632      0.851653
O	      0.00844      1.82724      0.09631        -1.283145     -0.755557      1.011820
O	      2.20087      1.87532     -1.87479        -0.266002      0.548457     -1.237374
O	      0.01978      3.94333     -2.01774        -0.599178     -1.035087      1.915346
O	      2.25896      3.98914     -3.98703         0.224027      0.316568     -0.723999
