# total energy = -105.09070488 eV
 
CRYSTAL
PRIMVEC
-0.000186 1.990355 1.990653 
9.167236 2.047488 -2.046436 
0.026082 4.050184 -4.049457 
PRIMCOORD
16 1
Li	      0.02677      2.02501     -2.01822         0.047088     -0.329493      0.276059
Li	      2.29044      3.97714     -2.00831        -0.034299      0.208698     -0.176865
Li	      4.51901      4.00754     -4.00279        -0.191671      0.078378     -0.111910
Li	      6.78904      5.95958     -3.99368        -0.193183      0.082287     -0.042113
Mn	      9.05498      5.95583     -5.95060         1.092879      1.494899     -2.022586
Mn	      2.25964      1.97844     -0.01695        -0.426800     -0.874246      1.389497
Mn	      4.52466      2.01167     -2.01035        -0.131262     -0.418880     -0.186612
Mn	      6.78432      4.04446     -2.07934         0.353108      0.360523      0.247775
O	      4.50395      3.90904     -1.94585         0.009339      0.774154     -0.425728
O	      6.78843      3.95939     -3.95413         0.005131      0.491175     -0.880433
O	      4.53536      2.07567     -0.11464         0.292308     -0.455553      0.806705
O	      6.77561      2.12796     -2.12470         0.418150     -0.805147      0.502357
O	      0.00861      1.86491      0.09830        -0.760472     -0.482592      0.665227
O	      2.24625      1.91398     -1.91344        -0.137857      0.341928     -0.687075
O	      0.02019      4.02464     -2.05935        -0.463886     -0.648580      1.077542
O	      2.30554      4.07139     -4.06923         0.121428      0.182449     -0.431838
