# total energy = -105.34684309 eV
 
CRYSTAL
PRIMVEC
-0.000187 2.000458 2.000758 
9.213770 2.057882 -2.056824 
0.026215 4.070743 -4.070013 
PRIMCOORD
16 1
Li	      0.02705      2.04562     -2.03876         0.033145     -0.216342      0.184698
Li	      2.31375      4.01762     -2.02875        -0.020791      0.136007     -0.121193
Li	      4.56501      4.04833     -4.04354        -0.125939      0.051580     -0.072528
Li	      6.85814      6.02024     -4.03433        -0.132648      0.049565     -0.027371
Mn	      9.14714      6.01645     -6.01117         0.759714      0.999511     -1.338762
Mn	      2.28264      1.99858     -0.01712        -0.281991     -0.577477      0.912306
Mn	      4.57072      2.03215     -2.03081        -0.089568     -0.258021     -0.109791
Mn	      6.85337      4.08563     -2.10051         0.226128      0.225724      0.144005
O	      4.54979      3.94882     -1.96565         0.013498      0.498905     -0.285692
O	      6.85752      3.99969     -3.99438         0.001944      0.323316     -0.566389
O	      4.58152      2.09679     -0.11580         0.186611     -0.300348      0.519407
O	      6.84458      2.14962     -2.14632         0.275885     -0.520486      0.337103
O	      0.00870      1.88389      0.09930        -0.499661     -0.322053      0.458125
O	      2.26912      1.93346     -1.93291        -0.081531      0.234731     -0.441849
O	      0.02039      4.06560     -2.08031        -0.339196     -0.442545      0.693431
O	      2.32900      4.11283     -4.11065         0.074400      0.117932     -0.285501
