# total energy = -105.49979366 eV
 
CRYSTAL
PRIMVEC
-0.000188 2.010561 2.010863 
9.260305 2.068275 -2.067212 
0.026347 4.091303 -4.090568 
PRIMCOORD
16 1
Li	      0.02732      2.06633     -2.05941         0.017210     -0.111071      0.094256
Li	      2.33717      4.05830     -2.04929        -0.009116      0.063081     -0.061449
Li	      4.61123      4.08933     -4.08448        -0.061558      0.024978     -0.034095
Li	      6.92759      6.08121     -4.07518        -0.068779      0.025177     -0.018545
Mn	      9.23977      6.07738     -6.07204         0.394302      0.495710     -0.659747
Mn	      2.30575      2.01882     -0.01730        -0.139653     -0.287520      0.452252
Mn	      4.61700      2.05273     -2.05138        -0.048270     -0.118697     -0.047144
Mn	      6.92277      4.12700     -2.12178         0.108117      0.109021      0.058605
O	      4.59586      3.98881     -1.98555         0.011999      0.243912     -0.150001
O	      6.92697      4.04019     -4.03483        -0.001603      0.164715     -0.278522
O	      4.62792      2.11802     -0.11697         0.083649     -0.149749      0.257413
O	      6.91389      2.17139     -2.16806         0.136379     -0.258063      0.174566
O	      0.00879      1.90297      0.10030        -0.242794     -0.153124      0.231125
O	      2.29209      1.95304     -1.95249        -0.028116      0.127730     -0.217610
O	      0.02060      4.10677     -2.10137        -0.183798     -0.226903      0.336957
O	      2.35258      4.15448     -4.15227         0.032031      0.050805     -0.138061
