# total energy = -92.52843418 eV
 
CRYSTAL
PRIMVEC
1.994773 4.254443 1.973638 
4.057211 -2.139732 -2.016249 
-0.022140 4.379865 -4.176039 
PRIMCOORD
16 1
Li	      3.99619      4.36876     -0.19970         0.001215      0.000436     -0.006811
Li	      4.03442      2.40148     -2.11633         0.006141      0.016614      0.014095
Li	      4.00133      0.16428     -4.06804         0.010655      0.013709      0.024075
Li	      2.04269      4.20182     -2.05936        -0.002275      0.001848      0.027364
Mn	      1.99936      4.24636      1.95521         0.027465      0.016213     -0.007249
Mn	      2.02945      2.13754     -0.11244        -0.030758      0.009486     -0.065343
Ni	      4.02957      6.34263     -2.07038        -0.037739      0.102960      0.065557
Ni	      4.01092      4.30755     -4.12174        -0.003770     -0.004929     -0.059106
O	      4.02122      4.36499     -2.15060        -0.007457     -0.151100      0.147908
O	      4.01902      2.27387     -4.28057         0.142328     -0.124374     -0.065714
O	      4.03030      2.03536      0.00724        -0.001082      0.092221     -0.103013
O	      4.15856     -0.21420     -2.04723         0.030576     -0.018567     -0.088857
O	      1.95915      4.05156      0.02525         0.000068     -0.029110      0.007755
O	      2.01861      2.14369     -1.98389        -0.007990      0.006102      0.150623
O	      2.02215      6.67279     -2.27020        -0.016935      0.038179     -0.031359
O	      1.92177      4.50483     -4.18767        -0.110441      0.030315     -0.009925
