# total energy = -92.37814347 eV
 
CRYSTAL
PRIMVEC
1.968535 4.169457 2.046022 
4.048781 -2.113490 -2.098349 
-0.003222 4.227283 -4.203611 
PRIMCOORD
16 1
Li	      4.01943      4.19916     -0.15065         0.025971      0.019359      0.034855
Li	      3.95918      2.23125     -2.09412        -0.009821     -0.008827      0.004997
Li	      4.05052      6.13772     -2.18818         0.010195      0.009397     -0.004221
Li	      3.99022      4.16993     -4.13152        -0.025287     -0.019892     -0.034506
Mn	      5.97010      2.05476     -0.04561         0.019931      0.022491      0.015669
Mn	      2.04276      2.08713     -0.03302        -0.019159     -0.022441     -0.015489
Ni	      5.96486      4.18513     -2.17043        -0.011516     -0.063205     -0.025315
Ni	      2.04485      4.18398     -2.11185         0.011710      0.063312      0.025259
O	      4.00486      4.18454     -2.14111        -0.000400     -0.000332     -0.000356
O	      4.07160      2.07532     -4.39014        -0.117939      0.101752     -0.053677
O	      4.00644      2.07086     -0.03926        -0.000029      0.000250     -0.000720
O	      4.13812     -0.17996     -2.15126         0.044348     -0.017517      0.111086
O	      1.95041      4.05508      0.05012        -0.003484     -0.062532      0.092910
O	      1.96955      2.12439     -1.93815         0.117174     -0.102018      0.054710
O	      2.01052      6.42757     -2.23400         0.004063      0.063008     -0.093337
O	      1.90307      4.37973     -4.17696        -0.045757      0.017193     -0.111866
