# total energy = -105.50859921 eV
 
CRYSTAL
PRIMVEC
-0.000190 2.030768 2.031072 
9.353373 2.089062 -2.087988 
0.026612 4.132421 -4.131679 
PRIMCOORD
16 1
Li	      0.02787      2.10808     -2.10101        -0.008741      0.090286     -0.086622
Li	      2.38439      4.14029     -2.09069         0.012443     -0.064748      0.054742
Li	      4.70438      4.17193     -4.16699         0.058089     -0.022438      0.027443
Li	      7.06754      6.20406     -4.15750         0.050872     -0.010826      0.004698
Mn	      0.07305      4.11109     -4.10672        -0.401860     -0.503488      0.647987
Mn	      2.35233      2.05960     -0.01765         0.145821      0.281406     -0.426840
Mn	      4.71028      2.09420     -2.09282         0.037835      0.111675      0.032920
Mn	      7.06262      4.21038     -2.16464        -0.111273     -0.084092     -0.059088
O	      4.68870      4.06939     -2.02567        -0.005327     -0.195410      0.111268
O	      7.06691      4.12181     -4.11634        -0.003571     -0.139161      0.222712
O	      4.72141      2.16081     -0.11933        -0.097911      0.122545     -0.195504
O	      7.05356      2.21525     -2.21185        -0.136111      0.204025     -0.125789
O	      0.00897      1.94141      0.10233         0.234214      0.195179     -0.280570
O	      2.33840      1.99250     -1.99193         0.051020     -0.087759      0.174561
O	      0.02101      4.18973     -2.14382         0.212709      0.189398     -0.275739
O	      2.40011      4.23840     -4.23616        -0.038208     -0.086592      0.173822
