# total energy = -104.45452950 eV
 
CRYSTAL
PRIMVEC
-0.000194 2.071181 2.071492 
9.539510 2.130635 -2.129539 
0.027142 4.214658 -4.213902 
PRIMCOORD
16 1
Li	      0.02899      2.19281     -2.18546        -0.044996      0.424824     -0.417989
Li	      2.48024      4.30671     -2.17473         0.029402     -0.282522      0.277985
Li	      4.89349      4.33964     -4.33450         0.264397     -0.096846      0.121831
Li	      7.35164      6.45344     -4.32462         0.267009     -0.051944      0.027335
Mn	      0.23869      0.10409     -0.10027        -2.024581     -2.191678      2.881359
Mn	      2.44689      2.14239     -0.01835         0.717405      1.345241     -2.050435
Mn	      4.89961      2.17837     -2.17695         0.193011      0.407794      0.063945
Mn	      7.34651      4.37962     -2.25165        -0.514301     -0.340431     -0.140756
O	      4.87718      4.23297     -2.10709        -0.071069     -0.835000      0.576463
O	      7.35097      4.28749     -4.28180         0.013356     -0.677119      0.986095
O	      4.91119      2.24767     -0.12413        -0.388999      0.575284     -0.863190
O	      7.33709      2.30430     -2.30076        -0.638755      0.915124     -0.643453
O	      0.00933      2.01945      0.10644         0.971255      0.848533     -1.414312
O	      2.43239      2.07259     -2.07200         0.152588     -0.493948      0.748608
O	      0.02186      4.35815     -2.23000         1.149840      0.817693     -1.022919
O	      2.49659      4.40877     -4.40644        -0.075563     -0.365004      0.869431
