# total energy = -103.47432538 eV
 
CRYSTAL
PRIMVEC
-0.000196 2.091388 2.091701 
9.632578 2.151422 -2.150316 
0.027406 4.255777 -4.255013 
PRIMCOORD
16 1
Li	      0.02956      2.23581     -2.22832        -0.049155      0.555164     -0.557445
Li	      2.52887      4.39116     -2.21737         0.030817     -0.371444      0.383257
Li	      4.98943      4.42472     -4.41948         0.349585     -0.121267      0.156801
Li	      7.49578      6.57997     -4.40942         0.346849     -0.059655      0.033662
Mn	      0.33761      0.16864     -0.16473        -2.744609     -2.747048      3.703045
Mn	      2.49487      2.18440     -0.01872         1.006152      1.827733     -2.820431
Mn	      4.99568      2.22109     -2.21963         0.258018      0.489448      0.041597
Mn	      7.49056      4.46549     -2.29580        -0.710428     -0.412295     -0.131128
O	      4.97280      4.31597     -2.14841        -0.104958     -1.058483      0.771630
O	      7.49510      4.37156     -4.36576         0.018081     -0.906377      1.265388
O	      5.00749      2.29174     -0.12657        -0.502538      0.749407     -1.103561
O	      7.48095      2.34948     -2.34588        -0.868795      1.177439     -0.849158
O	      0.00951      2.05905      0.10853         1.211161      1.088904     -1.960176
O	      2.48009      2.11323     -2.11263         0.176974     -0.676135      0.947029
O	      0.02229      4.44360     -2.27372         1.594938      0.971212     -1.150058
O	      2.54554      4.49522     -4.49284        -0.012092     -0.506602      1.269551
