# total energy = -102.89198381 eV
 
CRYSTAL
PRIMVEC
-0.000197 2.101491 2.101806 
9.679112 2.161815 -2.160703 
0.027539 4.276336 -4.275569 
PRIMCOORD
16 1
Li	      0.02984      2.25746     -2.24990        -0.044733      0.610301     -0.617998
Li	      2.55337      4.43369     -2.23885         0.030843     -0.409755      0.432497
Li	      5.03775      4.46758     -4.46228         0.386346     -0.128187      0.170219
Li	      7.56837      6.64370     -4.45212         0.377587     -0.062200      0.033267
Mn	      0.38778      0.20137     -0.19742        -3.064885     -2.931097      4.022130
Mn	      2.51903      2.20556     -0.01890         1.151225      2.053422     -3.200736
Mn	      5.04407      2.24260     -2.24113         0.284887      0.517377      0.024135
Mn	      7.56311      4.50874     -2.31804        -0.810446     -0.438620     -0.116799
O	      5.02096      4.35777     -2.16921        -0.120156     -1.148801      0.860728
O	      7.56769      4.41390     -4.40804         0.021661     -1.010250      1.385019
O	      5.05599      2.31394     -0.12779        -0.550084      0.828108     -1.205260
O	      7.55340      2.37223     -2.36860        -0.975223      1.288828     -0.938165
O	      0.00960      2.07899      0.10958         1.296305      1.175112     -2.207416
O	      2.50410      2.13369     -2.13309         0.182946     -0.757496      1.024425
O	      0.02250      4.48664     -2.29575         1.791469      0.994001     -1.154239
O	      2.57019      4.53876     -4.53635         0.042257     -0.580744      1.488191
