# total energy = -102.25735658 eV
 
CRYSTAL
PRIMVEC
-0.000198 2.111595 2.111911 
9.725646 2.172208 -2.171091 
0.027671 4.296896 -4.296124 
PRIMCOORD
16 1
Li	      0.03013      2.27922     -2.27158        -0.033619      0.658750     -0.671901
Li	      2.57797      4.47642     -2.26043         0.030822     -0.448519      0.481126
Li	      5.08631      4.51064     -4.50529         0.420266     -0.140042      0.186059
Li	      7.64132      6.70773     -4.49503         0.395547     -0.065584      0.036779
Mn	      0.43840      0.23442     -0.23041        -3.357644     -3.048999      4.272351
Mn	      2.54331      2.22682     -0.01908         1.298922      2.268483     -3.580988
Mn	      5.09269      2.26422     -2.26273         0.306748      0.538919      0.003977
Mn	      7.63600      4.55220     -2.34038        -0.907212     -0.458309     -0.100670
O	      5.06935      4.39977     -2.19012        -0.131518     -1.226501      0.943965
O	      7.64063      4.45644     -4.45053         0.016863     -1.105088      1.484194
O	      5.10472      2.33624     -0.12902        -0.591113      0.897032     -1.293039
O	      7.62621      2.39510     -2.39143        -1.080475      1.385388     -1.019670
O	      0.00969      2.09903      0.11064         1.360856      1.241002     -2.428881
O	      2.52824      2.15426     -2.15364         0.187568     -0.831147      1.088393
O	      0.02272      4.52988     -2.31787         1.963362      0.988702     -1.119548
O	      2.59497      4.58251     -4.58008         0.120627     -0.654087      1.717852
