# total energy = -101.57679984 eV
 
CRYSTAL
PRIMVEC
-0.000199 2.121698 2.122016 
9.772181 2.182602 -2.181479 
0.027804 4.317455 -4.316680 
PRIMCOORD
16 1
Li	      0.03042      2.30109     -2.29337        -0.017856      0.701041     -0.721270
Li	      2.60271      4.51937     -2.28211         0.033891     -0.483869      0.526675
Li	      5.13511      4.55391     -4.54851         0.448956     -0.143460      0.199235
Li	      7.71462      6.77208     -4.53815         0.408141     -0.069811      0.038424
Mn	      0.48950      0.26776     -0.26371        -3.621829     -3.097853      4.453689
Mn	      2.56770      2.24817     -0.01926         1.450106      2.467767     -3.959270
Mn	      5.14154      2.28594     -2.28444         0.323640      0.550927     -0.016865
Mn	      7.70925      4.59586     -2.36283        -1.008681     -0.472206     -0.082772
O	      5.11798      4.44197     -2.21113        -0.142526     -1.291558      1.016143
O	      7.71393      4.49919     -4.49322         0.007845     -1.191251      1.575603
O	      5.15368      2.35865     -0.13026        -0.621682      0.957842     -1.368011
O	      7.69936      2.41807     -2.41436        -1.180577      1.468940     -1.089220
O	      0.00979      2.11916      0.11170         1.410157      1.281565     -2.621496
O	      2.55249      2.17492     -2.17431         0.184866     -0.898087      1.138879
O	      0.02294      4.57333     -2.34011         2.107474      0.947465     -1.050470
O	      2.61986      4.62646     -4.62401         0.218077     -0.727452      1.960726
