# total energy = -100.99481571 eV
 
CRYSTAL
PRIMVEC
-2.022878 3.971777 -2.025090 
2.011989 3.958347 2.012433 
2.026029 0.008090 -6.064637 
PRIMCOORD
16 1
Li	      0.05424      3.77218      0.03748        -0.398875      0.049703      0.438055
Li	      0.01578      1.85642     -1.96635        -0.493431     -0.575428      0.246911
Li	      1.87397      3.74238     -1.91193         0.353761     -0.116051      0.724381
Li	      1.97082      1.89530     -3.78787         0.402460     -0.246440     -0.115821
Mn	      1.92221      0.02731     -5.73681         0.977644     -4.923884     -0.880300
Mn	     -0.05862      5.67264     -1.94710        -1.020561      4.503958      2.391134
Mn	     -0.01915      3.79219     -3.89754        -1.834744     -3.562880     -0.854923
Mn	      1.93872      5.67330     -3.85331         1.188363      4.245513     -1.169627
O	     -0.04216      5.53105     -3.92045        -1.740026      3.694041     -1.824400
O	     -0.10413      3.86798     -2.05996        -0.409234     -2.739408      2.107640
O	      1.77922      5.74858     -2.03207         2.427323      0.166393      2.880056
O	      0.09185      1.78640      0.06580        -0.959848      1.248278      0.677749
O	      1.83918      3.64063     -0.04429         1.258703     -0.097088      1.177019
O	      0.06212      3.67904     -5.67160        -0.075821      0.338065     -3.154335
O	      1.95877      5.78414     -5.64027         0.162229      1.300726     -2.777144
O	      2.04566      3.89714     -3.80896         0.162058     -3.285499      0.133607
