# total energy = -89.22355086 eV
 
CRYSTAL
PRIMVEC
-0.011702 2.257274 2.081892 
2.018626 -2.263642 -0.002915 
10.461683 13.973811 0.029924 
PRIMCOORD
16 1
Li	      2.09173      2.64830     -0.24755         0.009084      0.024632     -0.007450
Li	      4.15572      2.17102     -2.18276        -0.026359     -0.022021     -0.013015
Li	      8.31005     11.79342     -6.63262         0.021463      0.017592      0.016503
Li	     10.36989     11.31302     -8.56547        -0.003587     -0.019787      0.001010
Mn	     -0.01081      2.25516      2.07933         0.004195     -0.000115     -0.002544
Mn	      6.23334      6.98020     -4.40725         0.002634      0.000361     -0.001503
Ni	      4.07911      6.76783     -2.17568         0.035242      0.044162     -0.068630
Ni	      8.38784      7.19290     -6.63759        -0.034961     -0.040689      0.067267
O	     10.53057     14.13314     -8.93449         0.001028      0.010190     -0.009568
O	      8.26070      9.13309     -6.46298         0.146278      0.055661     -0.107249
O	     10.41688      9.34950     -8.70410         0.006719     -0.015278      0.020853
O	      6.18059      9.26270     -4.31058        -0.049900     -0.015875      0.034080
O	      4.20599      4.82750     -2.34999        -0.143701     -0.057135      0.104203
O	      6.28643      4.69775     -4.50419         0.045343      0.016064     -0.028736
O	      1.94072     -0.16953      0.12317        -0.005592     -0.011866      0.014051
O	      2.04743      4.61356     -0.11031        -0.007886      0.014103     -0.019273
