# total energy = -101.91905246 eV
 
CRYSTAL
PRIMVEC
-2.033525 3.992682 -2.035748 
2.022578 3.979180 2.023025 
2.036693 0.008133 -6.096556 
PRIMCOORD
16 1
Li	      0.05481      3.81199      0.03788        -0.328795      0.038139      0.379713
Li	      0.01594      1.87601     -1.98710        -0.435940     -0.504402      0.219413
Li	      1.89375      3.78187     -1.93211         0.297382     -0.090263      0.649290
Li	      1.99162      1.91530     -3.82784         0.355424     -0.209042     -0.097456
Mn	      1.94250      0.02760     -5.79735         0.852504     -4.464536     -0.890567
Mn	     -0.05924      5.73251     -1.96765        -0.806237      3.940377      2.037321
Mn	     -0.01935      3.83221     -3.93868        -1.579403     -3.020862     -0.762289
Mn	      1.95918      5.73318     -3.89398         0.961631      3.654499     -1.017586
O	     -0.04261      5.58943     -3.96182        -1.495961      3.183767     -1.558020
O	     -0.10523      3.90881     -2.08170        -0.357347     -2.334112      1.794998
O	      1.79799      5.80926     -2.05352         2.078734      0.116077      2.457256
O	      0.09282      1.80526      0.06649        -0.851893      1.049221      0.653428
O	      1.85859      3.67905     -0.04476         1.069218     -0.109636      1.046780
O	      0.06277      3.71788     -5.73145        -0.068674      0.333149     -2.702692
O	      1.97944      5.84519     -5.69980         0.139496      1.218899     -2.361975
O	      2.06725      3.93827     -3.84916         0.169860     -2.801273      0.152384
