# total energy = -103.98539708 eV
 
CRYSTAL
PRIMVEC
-2.065465 4.055394 -2.067724 
2.054346 4.041680 2.054800 
2.068683 0.008260 -6.192314 
PRIMCOORD
16 1
Li	      0.05655      3.93268      0.03907        -0.169073      0.025347      0.234774
Li	      0.01645      1.93541     -2.05001        -0.278937     -0.310889      0.133957
Li	      1.95371      3.90161     -1.99328         0.166381     -0.035816      0.426573
Li	      2.05468      1.97594     -3.94903         0.228032     -0.121623     -0.053241
Mn	      2.00400      0.02847     -5.98090         0.520886     -3.037476     -0.769208
Mn	     -0.06111      5.91400     -2.02995        -0.346106      2.420076      1.156234
Mn	     -0.01997      3.95354     -4.06338        -0.927655     -1.685686     -0.500103
Mn	      2.02121      5.91469     -4.01726         0.459126      2.130796     -0.622405
O	     -0.04396      5.76639     -4.08725        -0.870118      1.856784     -0.885361
O	     -0.10856      4.03256     -2.14761        -0.219756     -1.324394      1.015653
O	      1.85492      5.99318     -2.11853         1.188561      0.022042      1.389828
O	      0.09576      1.86241      0.06860        -0.532141      0.557266      0.511511
O	      1.91744      3.79553     -0.04618         0.597459     -0.117400      0.675197
O	      0.06476      3.83558     -5.91292        -0.048639      0.266405     -1.542426
O	      2.04211      6.03025     -5.88025         0.083902      0.924140     -1.328064
O	      2.13270      4.06295     -3.97103         0.148078     -1.569572      0.157082
