# total energy = -104.46040326 eV
 
CRYSTAL
PRIMVEC
-2.076112 4.076298 -2.078382 
2.064936 4.062514 2.065392 
2.079346 0.008303 -6.224233 
PRIMCOORD
16 1
Li	      0.05713      3.97333      0.03948        -0.129326      0.025011      0.191370
Li	      0.01662      1.95541     -2.07120        -0.229859     -0.254906      0.107047
Li	      1.97390      3.94194     -2.01388         0.128360     -0.026316      0.355071
Li	      2.07591      1.99636     -3.98985         0.188072     -0.095055     -0.043012
Mn	      2.02472      0.02877     -6.04272         0.420774     -2.546285     -0.683719
Mn	     -0.06175      5.97513     -2.05093        -0.244472      1.964573      0.914889
Mn	     -0.02017      3.99441     -4.10538        -0.742777     -1.329587     -0.415105
Mn	      2.04210      5.97583     -4.05878         0.342445      1.699227     -0.504156
O	     -0.04441      5.82599     -4.12950        -0.690993      1.479735     -0.702552
O	     -0.10968      4.07424     -2.16981        -0.176361     -1.042603      0.798687
O	      1.87409      6.05512     -2.14042         0.941007      0.006254      1.097292
O	      0.09675      1.88166      0.06930        -0.431847      0.425517      0.441744
O	      1.93725      3.83476     -0.04666         0.471469     -0.111305      0.556928
O	      0.06543      3.87522     -5.97403        -0.039595      0.233035     -1.217065
O	      2.06322      6.09257     -5.94103         0.061933      0.804754     -1.044530
O	      2.15474      4.10495     -4.01207         0.131170     -1.232049      0.147112
