# total energy = -105.12560139 eV
 
CRYSTAL
PRIMVEC
-2.097405 4.118106 -2.099699 
2.086114 4.104180 2.086575 
2.100673 0.008388 -6.288071 
PRIMCOORD
16 1
Li	      0.05831      4.05525      0.04029        -0.070073      0.018152      0.116003
Li	      0.01696      1.99573     -2.11391        -0.133904     -0.151546      0.055798
Li	      2.01460      4.02321     -2.05541         0.063485     -0.014481      0.211112
Li	      2.11872      2.03752     -4.07211         0.112775     -0.053744     -0.020788
Mn	      2.06646      0.02936     -6.16730         0.237260     -1.546985     -0.453574
Mn	     -0.06302      6.09832     -2.09321        -0.100124      1.117239      0.496611
Mn	     -0.02059      4.07676     -4.19002        -0.415669     -0.716382     -0.256710
Mn	      2.08420      6.09904     -4.14246         0.166582      0.933777     -0.286368
O	     -0.04533      5.94611     -4.21464        -0.385312      0.814242     -0.385271
O	     -0.11194      4.15824     -2.21455        -0.090849     -0.552554      0.425105
O	      1.91273      6.17997     -2.18456         0.500905     -0.007983      0.593852
O	      0.09874      1.92046      0.07073        -0.238227      0.209262      0.277634
O	      1.97719      3.91382     -0.04762         0.255311     -0.085032      0.328369
O	      0.06678      3.95513     -6.09720        -0.023218      0.155481     -0.645521
O	      2.10576      6.21819     -6.06353         0.032801      0.530590     -0.564921
O	      2.19917      4.18958     -4.09479         0.088258     -0.650037      0.108670
