# total energy = -105.32589241 eV
 
CRYSTAL
PRIMVEC
-2.108052 4.139010 -2.110357 
2.096704 4.125014 2.097167 
2.111336 0.008431 -6.319990 
PRIMCOORD
16 1
Li	      0.05890      4.09653      0.04070        -0.046227      0.015934      0.081126
Li	      0.01713      2.01604     -2.13542        -0.090792     -0.099786      0.029678
Li	      2.03510      4.06416     -2.07633         0.033479     -0.014970      0.141424
Li	      2.14028      2.05826     -4.11356         0.074361     -0.033619     -0.015207
Mn	      2.08749      0.02966     -6.23008         0.152417     -1.039524     -0.311617
Mn	     -0.06366      6.16039     -2.11452        -0.050774      0.724716      0.315660
Mn	     -0.02080      4.11826     -4.23267        -0.268936     -0.459245     -0.176077
Mn	      2.10541      6.16111     -4.18463         0.105495      0.597349     -0.184635
O	     -0.04579      6.00663     -4.25754        -0.251477      0.519213     -0.247228
O	     -0.11308      4.20056     -2.23708        -0.053938     -0.341620      0.268010
O	      1.93220      6.24287     -2.20679         0.310462     -0.008042      0.375726
O	      0.09975      1.94000      0.07145        -0.149365      0.124628      0.184993
O	      1.99732      3.95366     -0.04810         0.164236     -0.064908      0.210349
O	      0.06746      3.99538     -6.15926        -0.012042      0.108649     -0.398645
O	      2.12719      6.28148     -6.12524         0.021206      0.375895     -0.357309
O	      2.22155      4.23222     -4.13647         0.061895     -0.404669      0.083752
