# total energy = -105.44482363 eV
 
CRYSTAL
PRIMVEC
-2.118699 4.159914 -2.121015 
2.107293 4.145847 2.107759 
2.121999 0.008473 -6.351909 
PRIMCOORD
16 1
Li	      0.05950      4.13801      0.04111        -0.023866      0.010940      0.048709
Li	      0.01731      2.03645     -2.15705        -0.047943     -0.052866      0.002865
Li	      2.05571      4.10531     -2.09735         0.007755     -0.011196      0.067963
Li	      2.16195      2.07911     -4.15521         0.041089     -0.015233     -0.004522
Mn	      2.10863      0.02996     -6.29317         0.072535     -0.527167     -0.152045
Mn	     -0.06430      6.22277     -2.13593        -0.014693      0.347658      0.150494
Mn	     -0.02101      4.15996     -4.27553        -0.133480     -0.229690     -0.097758
Mn	      2.12673      6.22350     -4.22700         0.056258      0.286889     -0.087705
O	     -0.04625      6.06746     -4.30065        -0.131544      0.257213     -0.123608
O	     -0.11422      4.24310     -2.25974        -0.021359     -0.156121      0.126297
O	      1.95176      6.30608     -2.22914         0.137689     -0.001704      0.182002
O	      0.10076      1.95965      0.07217        -0.063516      0.058177      0.084891
O	      2.01754      3.99370     -0.04859         0.079465     -0.042879      0.094282
O	      0.06814      4.03584     -6.22163         0.000975      0.062240     -0.174352
O	      2.14873      6.34509     -6.18727         0.009059      0.200155     -0.172167
O	      2.24405      4.27508     -4.17835         0.031578     -0.186417      0.054653
