# total energy = -105.45679047 eV
 
CRYSTAL
PRIMVEC
-2.139992 4.201722 -2.142332 
2.128472 4.187514 2.128942 
2.143326 0.008559 -6.415748 
PRIMCOORD
16 1
Li	      0.06070      4.22160      0.04195        -0.000917      0.002332     -0.006914
Li	      0.01766      2.07759     -2.20062         0.035071      0.035579     -0.043981
Li	      2.09724      4.18825     -2.13972        -0.037481     -0.021745     -0.069272
Li	      2.20563      2.12111     -4.23915        -0.032675      0.017273      0.018484
Mn	      0.00790      0.02201     -0.00455        -0.069172      0.514500      0.210566
Mn	     -0.06560      6.34848     -2.17908         0.025215     -0.347379     -0.139309
Mn	     -0.02143      4.24400     -4.36190         0.109633      0.147634      0.059478
Mn	      2.16970      6.34923     -4.31240        -0.007630     -0.258167      0.101632
O	      2.09281      1.98831     -2.24520         0.083495     -0.201225      0.080015
O	     -0.11653      4.32882     -2.30539         0.036962      0.159680     -0.108403
O	      1.99119      6.43347     -2.27417        -0.163515      0.015686     -0.153292
O	      0.10279      1.99924      0.07363         0.089821     -0.025067     -0.122071
O	      2.05830      4.07437     -0.04957        -0.056426      0.018109     -0.150574
O	      0.06952      4.11737     -6.34732         0.022910     -0.036518      0.210845
O	      2.19214      6.47327     -6.31226        -0.007937     -0.197991      0.133025
O	      2.28938      4.36144     -4.26277        -0.027353      0.177299     -0.020229
