# total energy = -105.19345845 eV
 
CRYSTAL
PRIMVEC
-2.161286 4.243531 -2.163649 
2.149651 4.229181 2.150126 
2.164653 0.008644 -6.479586 
PRIMCOORD
16 1
Li	      0.06192      4.30603      0.04279         0.008566     -0.011201     -0.053177
Li	      0.01801      2.11915     -2.24463         0.114911      0.110005     -0.091888
Li	      2.13918      4.27202     -2.18252        -0.074662     -0.037315     -0.204200
Li	      2.24974      2.16352     -4.32394        -0.103372      0.047379      0.035541
Mn	      0.02960      0.02254     -0.06911        -0.189170      1.592219      0.628259
Mn	     -0.06692      6.47545     -2.22266         0.037022     -0.982028     -0.389835
Mn	     -0.02186      4.32887     -4.44914         0.321567      0.435767      0.214690
Mn	      2.21309      6.47621     -4.39864        -0.036761     -0.720288      0.283400
O	      2.11316      2.07030     -2.31163         0.248205     -0.559143      0.241832
O	     -0.11886      4.41539     -2.35150         0.088702      0.407457     -0.289404
O	      2.03101      6.56214     -2.31965        -0.409575      0.034451     -0.417051
O	      0.10485      2.03922      0.07511         0.219866     -0.047525     -0.337328
O	      2.09947      4.15586     -0.05056        -0.173353      0.100078     -0.405704
O	      0.07091      4.19972     -6.47426         0.054831     -0.129091      0.512831
O	      0.07133      6.59409      0.04109        -0.017645     -0.691943      0.372665
O	      2.33517      4.44867     -4.34802        -0.089132      0.451175     -0.100629
