# total energy = -104.34371440 eV
 
CRYSTAL
PRIMVEC
-2.193226 4.306243 -2.195624 
2.181419 4.291681 2.181901 
2.196642 0.008771 -6.575343 
PRIMCOORD
16 1
Li	      0.06376      4.43425      0.04406         0.009993     -0.041696     -0.108088
Li	      0.01855      2.18225     -2.31146         0.226364      0.215070     -0.156764
Li	      2.20288      4.39922     -2.24750        -0.117761     -0.070382     -0.406455
Li	      2.31672      2.22794     -4.45268        -0.213858      0.079822      0.071643
Mn	      0.06294      0.02333     -0.16835        -0.325958      3.304895      1.333004
Mn	     -0.06891      6.66825     -2.28885         0.019872     -1.844047     -0.720450
Mn	     -0.02251      4.45777     -4.58161         0.589518      0.746469      0.440715
Mn	      2.27898      6.66904     -4.52961        -0.044402     -1.286930      0.555422
O	      2.14366      2.19558     -2.41291         0.437686     -0.945179      0.420654
O	     -0.12240      4.54686     -2.42151         0.128426      0.654282     -0.464460
O	     -0.08993      2.46585     -4.57063        -0.694900      0.048945     -0.711898
O	      0.10797      2.09994      0.07734         0.364563      0.022909     -0.666289
O	      2.16198      4.27960     -0.05207        -0.298538      0.281639     -0.803005
O	      0.07302      4.32476     -6.66703         0.104467     -0.242342      0.811336
O	      0.10591      6.79056     -0.05486        -0.016275     -1.638058      0.637212
O	      2.40470      4.58113     -4.47748        -0.169197      0.714601     -0.232577
