# total energy = -103.95100250 eV
 
CRYSTAL
PRIMVEC
-2.203873 4.327147 -2.206282 
2.192009 4.312514 2.192493 
2.207306 0.008814 -6.607262 
PRIMCOORD
16 1
Li	      0.06438      4.47740      0.04449         0.004735     -0.055822     -0.123213
Li	      0.01873      2.20348     -2.33396         0.263454      0.245764     -0.177640
Li	      2.22431      4.44203     -2.26938        -0.129022     -0.085229     -0.474398
Li	      2.33927      2.24963     -4.49602        -0.253551      0.086186      0.083546
Mn	      0.07427      0.02361     -0.20206        -0.360079      3.906315      1.584505
Mn	     -0.06958      6.73315     -2.31112         0.011110     -2.117499     -0.822290
Mn	     -0.02273      4.50115     -4.62620         0.666412      0.826138      0.513873
Mn	      2.30116      6.73395     -4.57370        -0.040610     -1.451663      0.648364
O	      2.15383      2.23795     -2.44710         0.483904     -1.038987      0.463572
O	     -0.12359      4.59111     -2.44508         0.128289      0.709764     -0.501587
O	     -0.08017      2.51078     -4.60446        -0.767166      0.055801     -0.778341
O	      0.10902      2.12038      0.07810         0.395098      0.067577     -0.776942
O	      2.18302      4.32125     -0.05258        -0.333807      0.367646     -0.922396
O	      0.07373      4.36685     -6.73192         0.129888     -0.264190      0.862242
O	      0.11766      6.85669     -0.08747        -0.009493     -2.023137      0.702877
O	      2.42810      4.62571     -4.52106        -0.189161      0.771338     -0.282171
