# total energy = -102.18249214 eV
 
CRYSTAL
PRIMVEC
2.031006 4.053957 2.027079 
2.006314 -4.029578 2.002346 
4.025497 -0.000091 -4.017611 
PRIMCOORD
16 1
Li	      3.85772      1.93254     -1.88558         0.235659      0.741923     -0.285332
Li	      3.85416      1.94524      1.90867         0.063052      0.221659      0.228650
Li	      3.90920      0.01353     -0.05035        -0.166127      0.170357      0.763279
Li	      3.82257     -1.91940     -1.84239        -0.113479     -1.022849     -0.029402
Mn	      3.81875      0.00008     -3.80836        -0.092849     -0.018808     -5.443696
Mn	      3.86729     -1.91032      1.88938         1.112740     -0.486716      2.006467
Mn	      1.92553      0.00103     -1.91660        -2.335575     -0.313138     -2.011057
Mn	      5.76303      0.01033     -1.90082         3.911072      0.551096     -0.393602
O	      3.86568     -2.04159      0.09937         0.397129     -0.289908     -2.307315
O	      1.77888     -0.05102     -0.10624        -0.166502      0.137384      1.414431
O	      3.74236      2.06978     -0.01487         1.253474      0.455173     -0.218874
O	      2.04665     -1.78963      1.92734        -2.579845     -2.356851      0.657532
O	      3.73363      0.07316      2.07068         0.389407     -0.175237      1.109392
O	      3.94759     -0.06496     -2.02004        -1.177488     -0.004140      2.341750
O	      1.91285      1.81021      1.79118        -1.211449      2.276673      1.321681
O	      5.88881      0.08972      0.12997         0.480780      0.113382      0.846099
