# total energy = -102.86895487 eV
 
CRYSTAL
PRIMVEC
2.041640 4.075182 2.037692 
2.016818 -4.050675 2.012829 
4.046573 -0.000092 -4.038646 
PRIMCOORD
16 1
Li	      3.89822      1.95283     -1.90538         0.196028      0.644670     -0.233936
Li	      3.89463      1.96567      1.92871         0.044346      0.170888      0.193932
Li	      3.95025      0.01367     -0.05088        -0.154051      0.142467      0.690302
Li	      3.86270     -1.93955     -1.86173        -0.103289     -0.886886     -0.004852
Mn	      3.85885      0.00008     -3.84834        -0.047394     -0.020512     -4.810667
Mn	      3.90789     -1.93038      1.90922         0.965420     -0.448630      1.669479
Mn	      1.94574      0.00104     -1.93673        -2.081401     -0.261380     -1.662414
Mn	      5.82354      0.01044     -1.92077         3.469759      0.484605     -0.403606
O	      3.90626     -2.06302      0.10041         0.371348     -0.281972     -2.067887
O	      1.79756     -0.05156     -0.10736        -0.324893     -0.053781      1.224510
O	      3.78165      2.09151     -0.01502         1.194649      0.408580     -0.200527
O	      2.06813     -1.80842      1.94758        -2.310691     -2.048364      0.625955
O	      3.77283      0.07393      2.09241         0.306531      0.078565      1.207475
O	      3.98903     -0.06564     -2.04125        -1.044696      0.007548      1.732702
O	      1.93293      1.82922      1.80999        -1.088681      1.977863      1.268690
O	      5.95064      0.09067      0.13134         0.607016      0.086338      0.770842
