# total energy = -103.47014034 eV
 
CRYSTAL
PRIMVEC
2.052274 4.096407 2.048305 
2.027322 -4.071772 2.023313 
4.067649 -0.000092 -4.059681 
PRIMCOORD
16 1
Li	      3.93893      1.97322     -1.92528         0.160181      0.548997     -0.190282
Li	      3.93531      1.98620      1.94885         0.029883      0.129606      0.159348
Li	      3.99150      0.01381     -0.05141        -0.136792      0.120539      0.608466
Li	      3.90305     -1.95981     -1.88118        -0.092596     -0.752944      0.015913
Mn	      3.89914      0.00008     -3.88853        -0.010335     -0.026767     -4.195509
Mn	      3.94870     -1.95053      1.92916         0.825940     -0.397383      1.371871
Mn	      1.96607      0.00105     -1.95695        -1.816305     -0.216507     -1.355898
Mn	      5.88436      0.01055     -1.94084         3.028429      0.421875     -0.388420
O	      3.94706     -2.08456      0.10146         0.335012     -0.261459     -1.811549
O	      1.81633     -0.05210     -0.10848        -0.434455     -0.183689      1.039107
O	      3.82115      2.11336     -0.01518         1.104620      0.359094     -0.174840
O	      2.08973     -1.82731      1.96792        -2.029434     -1.748586      0.580831
O	      3.81223      0.07470      2.11427         0.232520      0.243261      1.235555
O	      4.03069     -0.06632     -2.06257        -0.903727      0.017151      1.246436
O	      1.95311      1.84832      1.82889        -0.962404      1.686667      1.182340
O	      6.01278      0.09161      0.13271         0.669464      0.060147      0.676629
