# total energy = -103.98454857 eV
 
CRYSTAL
PRIMVEC
2.062907 4.117632 2.058918 
2.037826 -4.092869 2.033796 
4.088725 -0.000093 -4.080715 
PRIMCOORD
16 1
Li	      3.97985      1.99372     -1.94528         0.129732      0.456374     -0.148297
Li	      3.97619      2.00683      1.96910         0.021934      0.095775      0.128523
Li	      4.03297      0.01396     -0.05195        -0.114540      0.100607      0.516859
Li	      3.94359     -1.98017     -1.90072        -0.079533     -0.620683      0.026156
Mn	      3.93965      0.00009     -3.92893         0.010548     -0.031807     -3.578500
Mn	      3.98973     -1.97080      1.94920         0.675267     -0.332776      1.108400
Mn	      1.98649      0.00106     -1.97729        -1.535722     -0.179478     -1.096260
Mn	      5.94549      0.01066     -1.96100         2.557819      0.356247     -0.353359
O	      3.98807     -2.10622      0.10251         0.288524     -0.231915     -1.515460
O	      1.83520     -0.05264     -0.10961        -0.447413     -0.225346      0.849651
O	      3.86085      2.13531     -0.01534         0.966646      0.308910     -0.149359
O	      2.11144     -1.84629      1.98836        -1.712111     -1.454399      0.520529
O	      3.85184      0.07548      2.13624         0.173314      0.285690      1.153523
O	      4.07257     -0.06701     -2.08400        -0.754451      0.024530      0.919217
O	      1.97341      1.86753      1.84789        -0.820646      1.402685      1.043719
O	      6.07525      0.09257      0.13409         0.640631      0.045585      0.574659
