# total energy = -104.41150584 eV
 
CRYSTAL
PRIMVEC
2.073541 4.138857 2.069531 
2.048331 -4.113967 2.044280 
4.109800 -0.000093 -4.101750 
PRIMCOORD
16 1
Li	      4.02099      2.01433     -1.96538         0.103525      0.369741     -0.114526
Li	      4.01729      2.02758      1.98945         0.012094      0.070488      0.101143
Li	      4.07466      0.01410     -0.05249        -0.094024      0.081475      0.427526
Li	      3.98435     -2.00064     -1.92037        -0.065650     -0.500107      0.033539
Mn	      3.98037      0.00009     -3.96954         0.016180     -0.032328     -2.960373
Mn	      4.03097     -1.99117      1.96935         0.531350     -0.267410      0.873702
Mn	      2.00703      0.00107     -1.99772        -1.253493     -0.147635     -0.870801
Mn	      6.00695      0.01076     -1.98127         2.091754      0.293652     -0.311818
O	      4.02929     -2.12800      0.10357         0.240922     -0.193061     -1.216116
O	      1.85417     -0.05318     -0.11074        -0.403711     -0.214208      0.668910
O	      3.90076      2.15738     -0.01550         0.811634      0.260751     -0.119558
O	      2.13326     -1.86538      2.00891        -1.389905     -1.170887      0.444701
O	      3.89165      0.07626      2.15832         0.123967      0.261520      1.010876
O	      4.11467     -0.06770     -2.10554        -0.602843      0.026211      0.680379
O	      1.99380      1.88683      1.86699        -0.677217      1.130367      0.881735
O	      6.13804      0.09352      0.13548         0.555418      0.031430      0.470682
