# total energy = -92.35312669 eV
 
CRYSTAL
PRIMVEC
-0.001382 2.080601 2.076484 
6.029440 -0.022560 -2.059944 
-2.074743 6.333865 -4.243481 
PRIMCOORD
16 1
Li	      2.12531      1.93975      0.13955         0.013463      0.010765     -0.003823
Li	      3.96917      1.93947     -1.94882        -0.019396      0.002037      0.013066
Li	     -0.01759      6.45546     -2.27423         0.017857     -0.002129     -0.012789
Li	      1.82599      6.45502     -4.36246        -0.014092     -0.007621      0.002802
Mn	      3.95357      6.31288     -6.30145        -0.000880      0.001634     -0.001923
Mn	      1.97589      4.19760     -2.11153         0.001624     -0.005081      0.007386
Ni	     -0.05565      4.15089      0.01381        -0.036550     -0.079121      0.084510
Ni	      4.00720      4.24467     -4.23668         0.038747      0.075054     -0.081600
O	      0.02720      4.09981     -2.01387         0.120753      0.108130     -0.119194
O	     -0.00106      2.01324      0.07122         0.003780     -0.102284      0.079951
O	      3.95219      6.38202     -4.29431        -0.002752      0.099105     -0.078520
O	      3.92465      4.29535     -2.20870        -0.122656     -0.104226      0.113235
O	     -0.18800      6.33252     -4.23418        -0.035321     -0.006192     -0.015636
O	      4.13888      2.06272      0.01095         0.040471      0.002497      0.018660
O	      1.96178      6.15164     -1.98713        -0.121919     -0.022780      0.015595
O	      1.99007      2.24329     -2.23537         0.116873      0.030212     -0.021720
