# total energy = -104.75350103 eV
 
CRYSTAL
PRIMVEC
2.084174 4.160082 2.080144 
2.058835 -4.135064 2.054763 
4.130876 -0.000094 -4.122785 
PRIMCOORD
16 1
Li	      4.06234      2.03504     -1.98560         0.081793      0.286891     -0.089696
Li	      4.05860      2.04842      2.00991         0.007722      0.052662      0.075285
Li	      4.11655      0.01425     -0.05303        -0.069902      0.063898      0.334447
Li	      4.02533     -2.02121     -1.94012        -0.053819     -0.385276      0.036074
Mn	      4.02130      0.00009     -4.01036         0.014032     -0.029512     -2.348228
Mn	      4.07242     -2.01165      1.98959         0.397599     -0.205082      0.656881
Mn	      2.02766      0.00108     -2.01826        -0.978689     -0.119538     -0.670107
Mn	      6.06871      0.01088     -2.00164         1.631770      0.232436     -0.256140
O	      4.07072     -2.14988      0.10464         0.190160     -0.154763     -0.930397
O	      1.87323     -0.05373     -0.11188        -0.330139     -0.177724      0.502924
O	      3.94086      2.17957     -0.01566         0.644862      0.210898     -0.092664
O	      2.15520     -1.88456      2.02957        -1.074710     -0.901522      0.364536
O	      3.93167      0.07704      2.18051         0.085615      0.208478      0.835368
O	      4.15697     -0.06840     -2.12719        -0.459541      0.023193      0.500706
O	      2.01430      1.90623      1.88618        -0.537309      0.869678      0.709102
O	      6.20116      0.09449      0.13687         0.450556      0.025283      0.371909
