# total energy = -105.01334102 eV
 
CRYSTAL
PRIMVEC
2.094808 4.181307 2.090757 
2.069339 -4.156161 2.065247 
4.151952 -0.000094 -4.143819 
PRIMCOORD
16 1
Li	      4.10390      2.05586     -2.00591         0.056581      0.206364     -0.060672
Li	      4.10012      2.06938      2.03047         0.004526      0.033605      0.051920
Li	      4.15867      0.01439     -0.05357        -0.049391      0.047076      0.243367
Li	      4.06650     -2.04189     -1.95996        -0.040927     -0.280599      0.038384
Mn	      4.06244      0.00009     -4.05139         0.013358     -0.025410     -1.750039
Mn	      4.11407     -2.03222      2.00995         0.284092     -0.147173      0.460821
Mn	      2.04841      0.00110     -2.03891        -0.715920     -0.090620     -0.484953
Mn	      6.13080      0.01099     -2.02212         1.189409      0.172751     -0.198885
O	      4.11236     -2.17187      0.10570         0.141724     -0.110372     -0.668163
O	      1.89240     -0.05428     -0.11302        -0.252425     -0.132970      0.353894
O	      3.98118      2.20186     -0.01582         0.479574      0.158861     -0.069710
O	      2.17725     -1.90384      2.05033        -0.779948     -0.649146      0.275357
O	      3.97189      0.07783      2.20282         0.052454      0.153129      0.647621
O	      4.19950     -0.06910     -2.14895        -0.323394      0.016185      0.347756
O	      2.03491      1.92573      1.90548        -0.397469      0.628322      0.532675
O	      6.26460      0.09545      0.13827         0.337756      0.019998      0.280627
