# total energy = -105.19530133 eV
 
CRYSTAL
PRIMVEC
2.105441 4.202532 2.101370 
2.079843 -4.177259 2.075730 
4.173028 -0.000095 -4.164854 
PRIMCOORD
16 1
Li	      4.14566      2.07678     -2.02632         0.033766      0.131609     -0.038954
Li	      4.14185      2.09044      2.05114         0.003427      0.022344      0.032114
Li	      4.20100      0.01454     -0.05411        -0.028650      0.031383      0.156060
Li	      4.10789     -2.06267     -1.97991        -0.024728     -0.181792      0.037868
Mn	      4.10379      0.00009     -4.09262         0.007118     -0.019442     -1.160084
Mn	      4.15595     -2.05291      2.03041         0.181229     -0.095940      0.285034
Mn	      2.06926      0.00111     -2.05966        -0.465329     -0.062760     -0.314590
Mn	      6.19319      0.01110     -2.04270         0.766410      0.115216     -0.135850
O	      4.15422     -2.19397      0.10678         0.094263     -0.075941     -0.428791
O	      1.91166     -0.05483     -0.11417        -0.170247     -0.090232      0.218323
O	      4.02170      2.22427     -0.01598         0.318031      0.108113     -0.046237
O	      2.19941     -1.92321      2.07120        -0.503434     -0.414511      0.186519
O	      4.01231      0.07862      2.22524         0.020809      0.100568      0.444703
O	      4.24225     -0.06980     -2.17082        -0.194913      0.009729      0.216228
O	      2.05563      1.94533      1.92487        -0.260786      0.406133      0.357852
O	      6.32836      0.09642      0.13967         0.223034      0.015525      0.189804
