# total energy = -105.30369666 eV
 
CRYSTAL
PRIMVEC
2.116075 4.223756 2.111983 
2.090348 -4.198356 2.086214 
4.194104 -0.000095 -4.185888 
PRIMCOORD
16 1
Li	      4.18765      2.09782     -2.04685         0.016335      0.063311     -0.017546
Li	      4.18379      2.11161      2.07191         0.001304      0.009771      0.013615
Li	      4.24354      0.01468     -0.05466        -0.007023      0.017360      0.074526
Li	      4.14949     -2.08355     -1.99996        -0.010552     -0.087479      0.035894
Mn	      4.14534      0.00009     -4.13407         0.002193     -0.012009     -0.581023
Mn	      4.19804     -2.07370      2.05097         0.090617     -0.048794      0.124885
Mn	      2.09021      0.00112     -2.08052        -0.228143     -0.034859     -0.161618
Mn	      6.25591      0.01121     -2.06338         0.361164      0.060889     -0.070661
O	      4.19629     -2.21620      0.10786         0.047443     -0.041659     -0.210801
O	      1.93101     -0.05538     -0.11533        -0.086997     -0.046655      0.096990
O	      4.06243      2.24680     -0.01614         0.160607      0.059012     -0.022612
O	      2.22168     -1.94269      2.09218        -0.247227     -0.201598      0.097262
O	      4.05294      0.07941      2.24777        -0.002328      0.055124      0.228941
O	      4.28520     -0.07051     -2.19281        -0.076092      0.001214      0.101288
O	      2.07644      1.96503      1.94437        -0.129069      0.196607      0.184845
O	      6.39245      0.09740      0.14109         0.107767      0.009765      0.106014
