# total energy = -105.31279339 eV
 
CRYSTAL
PRIMVEC
2.137342 4.266206 2.133209 
2.111356 -4.240550 2.107181 
4.236256 -0.000096 -4.227958 
PRIMCOORD
16 1
Li	      4.27224      2.14019     -2.08819        -0.015808     -0.064545      0.016798
Li	      2.13097     -2.11194     -0.01945        -0.001654     -0.009942     -0.016372
Li	      4.32926      0.01498     -0.05576         0.031590     -0.009205     -0.090037
Li	      4.23332     -2.12565     -2.04036         0.020045      0.084533      0.026405
Mn	      4.22909      0.00009     -4.21758        -0.013427      0.003701      0.572923
Mn	      2.17149      2.12496     -0.01478        -0.055330      0.037153     -0.139564
Mn	      2.13244      0.00114     -2.12255         0.208122      0.018463      0.111653
Mn	      2.14603      0.01154      2.12289        -0.379201     -0.040744      0.068281
O	      4.28106     -2.26096      0.11004        -0.049817      0.014068      0.156284
O	      1.97002     -0.05650     -0.11766         0.082019      0.036989     -0.100548
O	      4.14449      2.29218     -0.01647        -0.129581     -0.029829      0.021247
O	      2.26656     -1.98193      2.13444         0.205181      0.163839     -0.092667
O	      4.13482      0.08102      2.29318        -0.038926     -0.027043     -0.253014
O	      4.37177     -0.07193     -2.23710         0.129111     -0.013836     -0.080311
O	      2.11838      2.00473      1.98365         0.115808     -0.166123     -0.157060
O	      6.52158      0.09936      0.14394        -0.108132      0.002522     -0.044017
