# total energy = -105.22089305 eV
 
CRYSTAL
PRIMVEC
2.147975 4.287431 2.143822 
2.121860 -4.261648 2.117664 
4.257332 -0.000097 -4.248992 
PRIMCOORD
16 1
Li	      4.31486      2.16154     -2.10902        -0.026531     -0.121032      0.036652
Li	      2.16291     -2.11167     -0.00897        -0.000159     -0.013630     -0.029177
Li	      4.37245      0.01513     -0.05632         0.047974     -0.020240     -0.166997
Li	      4.27554     -2.14685     -2.06071         0.033468      0.156274      0.018990
Mn	      0.01394      0.00019     -0.01066        -0.022550      0.011084      1.153686
Mn	      2.20370      2.12495     -0.00439        -0.115888      0.076401     -0.249999
Mn	      2.15371      0.00115     -2.14372         0.408131      0.044753      0.229535
Mn	      2.18862      0.01165      2.12293        -0.718495     -0.089499      0.136537
O	      4.32376     -2.28352      0.11114        -0.093076      0.041141      0.308465
O	      1.98967     -0.05707     -0.11883         0.170515      0.073752     -0.184174
O	      4.18583      2.31505     -0.01663        -0.265850     -0.072055      0.039247
O	      2.28917     -2.00170      2.15573         0.401297      0.320316     -0.189013
O	      4.17606      0.08183      2.31605        -0.050651     -0.060472     -0.528288
O	      4.41538     -0.07265     -2.25942         0.216718     -0.020410     -0.144698
O	      2.13952      2.02472      2.00343         0.233723     -0.320676     -0.323275
O	      6.58664      0.10036      0.14538        -0.218625     -0.005707     -0.107489
