# total energy = -105.06870661 eV
 
CRYSTAL
PRIMVEC
2.158609 4.308656 2.154435 
2.132365 -4.282745 2.128148 
4.278408 -0.000097 -4.270027 
PRIMCOORD
16 1
Li	      4.35769      2.18299     -2.12996        -0.038301     -0.172995      0.050677
Li	      2.19506     -2.11131      0.00160         0.001341     -0.016571     -0.042147
Li	      4.41585      0.01528     -0.05688         0.063484     -0.031138     -0.239877
Li	      4.31798     -2.16816     -2.08117         0.048373      0.225174      0.010303
Mn	      0.03526      0.00019     -0.03190        -0.029908      0.017225      1.740793
Mn	      2.23613      2.12484      0.00610        -0.171110      0.112957     -0.347770
Mn	      2.17508      0.00116     -2.16500         0.595903      0.068818      0.338649
Mn	      2.23153      0.01176      2.12286        -1.042822     -0.133871      0.207737
O	      4.36668     -2.30618      0.11225        -0.140757      0.060582      0.437977
O	      2.00942     -0.05763     -0.12001         0.258332      0.110783     -0.249494
O	      4.22738      2.33803     -0.01680        -0.394968     -0.119283      0.056817
O	      2.31189     -2.02157      2.17713         0.577322      0.458040     -0.283548
O	      4.21751      0.08264      2.33904        -0.057341     -0.086034     -0.828015
O	      4.45920     -0.07337     -2.28184         0.301833     -0.029306     -0.198464
O	      2.16075      2.04482      2.02332         0.347149     -0.454506     -0.484374
O	      6.65201      0.10135      0.14682        -0.318530     -0.009874     -0.169264
