# total energy = -104.28069382 eV
 
CRYSTAL
PRIMVEC
2.190510 4.372331 2.186274 
2.163877 -4.346037 2.159598 
4.341635 -0.000099 -4.333131 
PRIMCOORD
16 1
Li	      4.48744      2.24800     -2.19338        -0.055777     -0.315084      0.094889
Li	      2.29279     -2.10955      0.03396        -0.005474     -0.022426     -0.069106
Li	      4.54733      0.01574     -0.05857         0.107060     -0.059448     -0.448468
Li	      4.44655     -2.23272     -2.14314         0.093333      0.393104     -0.013565
Mn	      0.10047      0.00020     -0.09689        -0.037587      0.025026      3.596763
Mn	      2.33469      2.12388      0.03820        -0.305950      0.197907     -0.573235
Mn	      2.23985      0.00120     -2.22947         1.099570      0.138524      0.608298
Mn	      2.36213      0.01211      2.12203        -1.879637     -0.254037      0.397042
O	      4.49670     -2.37485      0.11558        -0.268982      0.107414      0.725770
O	      2.06925     -0.05935     -0.12358         0.519062      0.214542     -0.389277
O	      4.35325      2.40765     -0.01730        -0.729833     -0.240686      0.101008
O	      2.38073     -2.08176      2.24195         1.021128      0.751519     -0.578646
O	      4.34309      0.08510      2.40868        -0.061980     -0.117237     -1.923384
O	      4.59198     -0.07556     -2.34979         0.494560     -0.057752     -0.283872
O	      2.22509      2.10571      2.08356         0.634999     -0.749507     -0.916576
O	      6.85008      0.10437      0.15119        -0.624492     -0.011857     -0.327641
