# total energy = -103.91532832 eV
 
CRYSTAL
PRIMVEC
2.201143 4.393556 2.196887 
2.174382 -4.367134 2.170081 
4.362711 -0.000099 -4.354165 
PRIMCOORD
16 1
Li	      4.53111      2.26988     -2.21472        -0.058769     -0.351729      0.112682
Li	      2.32579     -2.10875      0.04496        -0.008396     -0.020157     -0.077619
Li	      4.59158      0.01589     -0.05914         0.116596     -0.067556     -0.511947
Li	      4.48982     -2.25445     -2.16400         0.109497      0.440190     -0.024900
Mn	      0.12263      0.00020     -0.11897        -0.035393      0.022261      4.266742
Mn	      2.36797      2.12336      0.04910        -0.341832      0.219575     -0.626845
Mn	      2.26165      0.00121     -2.25116         1.246811      0.159287      0.681910
Mn	      2.40630      0.01223      2.12154        -2.113265     -0.288124      0.451543
O	      4.54046     -2.39796      0.11671        -0.312631      0.121597      0.789352
O	      2.08939     -0.05993     -0.12478         0.606138      0.240690     -0.416973
O	      4.39562      2.43108     -0.01747        -0.819721     -0.278869      0.107706
O	      2.40390     -2.10203      2.26377         1.130678      0.816021     -0.673505
O	      4.38536      0.08593      2.43213        -0.056851     -0.118040     -2.376126
O	      4.63667     -0.07629     -2.37266         0.545462     -0.066248     -0.290882
O	      2.24675      2.12620      2.10384         0.715105     -0.813731     -1.043260
O	      6.91674      0.10539      0.15266        -0.723429     -0.015167     -0.367879
