# total energy = -103.50253937 eV
 
CRYSTAL
PRIMVEC
2.211777 4.414781 2.207500 
2.184886 -4.388231 2.180565 
4.383787 -0.000100 -4.375200 
PRIMCOORD
16 1
Li	      4.57499      2.29186     -2.23617        -0.058811     -0.384253      0.127956
Li	      2.35901     -2.10785      0.05606        -0.011836     -0.021202     -0.082714
Li	      4.63605      0.01604     -0.05972         0.127615     -0.074848     -0.573466
Li	      4.53331     -2.27628     -2.18495         0.123846      0.480222     -0.031964
Mn	      0.14500      0.00020     -0.14126        -0.025730      0.016231      4.975624
Mn	      2.40146      2.12272      0.06012        -0.377312      0.240173     -0.674019
Mn	      2.28355      0.00122     -2.27296         1.382906      0.178890      0.748162
Mn	      2.45078      0.01235      2.12096        -2.326825     -0.320831      0.503657
O	      4.58443     -2.42118      0.11784        -0.348551      0.130204      0.834807
O	      2.10963     -0.06051     -0.12599         0.691277      0.265168     -0.432492
O	      4.43820      2.45462     -0.01764        -0.907836     -0.314821      0.114920
O	      2.42718     -2.12238      2.28570         1.223656      0.869532     -0.765827
O	      4.42783      0.08676      2.45569        -0.054391     -0.105753     -2.878155
O	      4.68157     -0.07703     -2.39563         0.587400     -0.080507     -0.290023
O	      2.26851      2.14679      2.12422         0.792517     -0.864324     -1.166390
O	      6.98373      0.10641      0.15414        -0.817924     -0.013882     -0.410076
