# total energy = -101.07529232 eV
 
CRYSTAL
PRIMVEC
-0.000469 1.921655 1.920462 
8.838867 0.000093 -0.000047 
0.000111 3.905150 -3.906782 
PRIMCOORD
16 1
Li	      6.30176      3.69467     -1.87205        -0.044939      0.747829     -0.524630
Li	      4.20094      3.69277     -3.69220        -0.092411      0.477779     -0.728874
Li	      8.39678      1.87545     -1.87276         0.718858     -0.691332      0.452087
Li	      2.09773      3.69370     -1.87327        -0.068071      0.352489     -0.117297
Mn	      0.00123      3.66060     -3.65654        -0.565784      2.418686     -4.859135
Mn	      2.10020      1.84394     -0.01299        -1.111785      1.619520      1.942087
Mn	      4.19940      1.91202     -1.90584        -0.552726     -2.128973     -1.529797
Mn	      6.29829      1.84409     -0.01282         1.274769      0.433596      3.063262
O	      4.19941      1.95624     -0.12426         0.471905     -1.491129      3.281559
O	      6.31776      1.78434     -1.77829         1.782107      1.763677     -3.861716
O	      4.19937      3.65633     -1.82654         0.220753      4.068051     -1.761572
O	      6.28080      0.07839     -0.07204         0.301301     -3.611355      1.873251
O	      0.00065      1.73300      0.09791        -1.771723     -0.600575      1.251149
O	      2.08191      1.78379     -1.77880        -0.424826      1.619083     -3.725477
O	      0.00030      3.74125     -1.91236        -0.725024     -0.824904      2.998331
O	      2.11707      0.07861     -0.07181         0.587596     -4.152443      2.246773
