# total energy = -102.01184463 eV
 
CRYSTAL
PRIMVEC
-0.000471 1.931769 1.930569 
8.885387 0.000094 -0.000048 
0.000112 3.925704 -3.927344 
PRIMCOORD
16 1
Li	      6.36826      3.73366     -1.89181        -0.057598      0.643859     -0.461787
Li	      4.24528      3.73175     -3.73117        -0.082824      0.419393     -0.624416
Li	      8.48540      1.89524     -1.89253         0.642493     -0.621070      0.415367
Li	      2.11986      3.73269     -1.89304        -0.057402      0.293114     -0.100333
Mn	      0.00124      3.69924     -3.69513        -0.487298      2.180960     -4.265121
Mn	      2.12236      1.86341     -0.01312        -0.968043      1.357286      1.613482
Mn	      4.24372      1.93219     -1.92595        -0.495504     -1.793292     -1.254338
Mn	      6.36477      1.86356     -0.01295         1.093990      0.293953      2.619920
O	      4.24373      1.97690     -0.12557         0.421312     -1.316182      2.817622
O	      6.38444      1.80318     -1.79706         1.546742      1.578148     -3.323411
O	      4.24368      3.69493     -1.84582         0.198843      3.492397     -1.567035
O	      6.34709      0.07922     -0.07280         0.275985     -3.104448      1.647423
O	      0.00065      1.75130      0.09894        -1.551039     -0.556852      1.148213
O	      2.10388      1.80262     -1.79758        -0.328895      1.447578     -3.199765
O	      0.00030      3.78074     -1.93255        -0.652033     -0.731059      2.546210
O	      2.13942      0.07944     -0.07257         0.501271     -3.583785      1.987969
