# total energy = -102.82018915 eV
 
CRYSTAL
PRIMVEC
-0.000474 1.941883 1.940677 
8.931908 0.000094 -0.000048 
0.000112 3.946257 -3.947906 
PRIMCOORD
16 1
Li	      6.43512      3.77286     -1.91167        -0.065262      0.549859     -0.401900
Li	      4.28984      3.77093     -3.77034        -0.071135      0.359511     -0.521648
Li	      8.57449      1.91514     -1.91240         0.564927     -0.548369      0.376455
Li	      2.14213      3.77188     -1.91292        -0.047696      0.240410     -0.083578
Mn	      0.00125      3.73807     -3.73392        -0.418383      1.940953     -3.699699
Mn	      2.14464      1.88297     -0.01326        -0.833937      1.121911      1.320318
Mn	      4.28827      1.95248     -1.94617        -0.436221     -1.489361     -1.015871
Mn	      6.43159      1.88312     -0.01309         0.931357      0.183016      2.215777
O	      4.28829      1.99765     -0.12689         0.371509     -1.146241      2.383584
O	      6.45147      1.82211     -1.81593         1.325674      1.389905     -2.825184
O	      4.28824      3.73371     -1.86519         0.178169      2.959219     -1.381049
O	      6.41373      0.08006     -0.07357         0.249942     -2.642573      1.432799
O	      0.00066      1.76968      0.09998        -1.340638     -0.505946      1.038504
O	      2.12597      1.82154     -1.81645        -0.247361      1.278947     -2.714388
O	      0.00030      3.82043     -1.95284        -0.580114     -0.638159      2.142376
O	      2.16187      0.08027     -0.07333         0.419168     -3.053082      1.733504
