# total energy = -103.50879716 eV
 
CRYSTAL
PRIMVEC
-0.000476 1.951997 1.950785 
8.978428 0.000095 -0.000048 
0.000113 3.966811 -3.968468 
PRIMCOORD
16 1
Li	      6.50233      3.81226     -1.93163        -0.068368      0.460849     -0.342591
Li	      4.33464      3.81031     -3.80972        -0.061717      0.308893     -0.435890
Li	      8.66403      1.93515     -1.93237         0.494127     -0.475138      0.337081
Li	      2.16450      3.81127     -1.93289        -0.041300      0.191610     -0.065292
Mn	      0.00127      3.77711     -3.77292        -0.355546      1.699717     -3.163468
Mn	      2.16705      1.90263     -0.01340        -0.707709      0.909631      1.059296
Mn	      4.33306      1.97287     -1.96650        -0.380490     -1.217641     -0.809222
Mn	      6.49876      1.90279     -0.01322         0.785688      0.094483      1.845312
O	      4.33308      2.01851     -0.12821         0.324288     -0.984007      1.986565
O	      6.51885      1.84114     -1.83489         1.114568      1.206522     -2.366911
O	      4.33303      3.77271     -1.88467         0.154635      2.469692     -1.192720
O	      6.48071      0.08089     -0.07433         0.224916     -2.216488      1.224687
O	      0.00067      1.78816      0.10103        -1.142428     -0.445749      0.927097
O	      2.14818      1.84057     -1.83542        -0.177979      1.107393     -2.268581
O	      0.00031      3.86033     -1.97323        -0.507599     -0.545970      1.773340
O	      2.18445      0.08111     -0.07410         0.344916     -2.563797      1.491297
