# total energy = -104.08484724 eV
 
CRYSTAL
PRIMVEC
-0.000479 1.962111 1.960892 
9.024948 0.000095 -0.000048 
0.000113 3.987364 -3.989030 
PRIMCOORD
16 1
Li	      6.56989      3.85187     -1.95170        -0.068263      0.381766     -0.286992
Li	      4.37968      3.84990     -3.84930        -0.055191      0.258038     -0.355014
Li	      8.75405      1.95525     -1.95245         0.424129     -0.403307      0.291972
Li	      2.18698      3.85087     -1.95298        -0.031762      0.155863     -0.055287
Mn	      0.00128      3.81635     -3.81212        -0.297414      1.454448     -2.647929
Mn	      2.18955      1.92240     -0.01354        -0.588523      0.722141      0.832783
Mn	      4.37808      1.99337     -1.98693        -0.323612     -0.976144     -0.629081
Mn	      6.56627      1.92256     -0.01336         0.648287      0.028347      1.504559
O	      4.37809      2.03948     -0.12955         0.270697     -0.828289      1.620776
O	      6.58658      1.86026     -1.85396         0.920844      1.024224     -1.937669
O	      4.37804      3.81190     -1.90425         0.131314      2.018854     -1.008417
O	      6.54804      0.08173     -0.07511         0.202765     -1.818824      1.026589
O	      0.00068      1.80674      0.10208        -0.953527     -0.384629      0.804522
O	      2.17049      1.85969     -1.85449        -0.123304      0.937616     -1.852305
O	      0.00031      3.90044     -1.99373        -0.434227     -0.461090      1.437592
O	      2.20714      0.08195     -0.07487         0.277787     -2.109014      1.253901
