# total energy = -104.55525116 eV
 
CRYSTAL
PRIMVEC
-0.000481 1.972225 1.971000 
9.071469 0.000096 -0.000049 
0.000114 4.007918 -4.009592 
PRIMCOORD
16 1
Li	      6.63779      3.89168     -1.97187        -0.064994      0.304841     -0.230402
Li	      4.42495      3.88969     -3.88908        -0.043637      0.209226     -0.281257
Li	      8.84453      1.97546     -1.97263         0.350161     -0.332527      0.248960
Li	      2.20959      3.89067     -1.97316        -0.022656      0.119295     -0.039175
Mn	      0.00129      3.85580     -3.85152        -0.243270      1.210273     -2.163201
Mn	      2.21219      1.94227     -0.01368        -0.474246      0.558821      0.633703
Mn	      4.42333      2.01397     -2.00746        -0.265087     -0.758006     -0.473375
Mn	      6.63415      1.94243     -0.01350         0.526301     -0.015371      1.192174
O	      4.42334      2.06056     -0.13088         0.217672     -0.677822      1.288248
O	      6.65466      1.87949     -1.87312         0.734653      0.842139     -1.546926
O	      4.42329      3.85131     -1.92393         0.108022      1.607414     -0.833221
O	      6.61572      0.08258     -0.07588         0.173757     -1.456378      0.838811
O	      0.00069      1.82542      0.10313        -0.774162     -0.324701      0.683014
O	      2.19293      1.87891     -1.87366        -0.076213      0.775055     -1.473080
O	      0.00031      3.94075     -2.01434        -0.361557     -0.375389      1.131033
O	      2.22996      0.08280     -0.07564         0.215255     -1.686871      1.024694
