# total energy = -104.92723711 eV
 
CRYSTAL
PRIMVEC
-0.000484 1.982339 1.981108 
9.117989 0.000096 -0.000049 
0.000115 4.028471 -4.030154 
PRIMCOORD
16 1
Li	      6.70605      3.93170     -1.99215        -0.055969      0.235778     -0.179832
Li	      4.47045      3.92969     -3.92907        -0.035405      0.164114     -0.213515
Li	      8.93548      1.99577     -1.99291         0.284166     -0.262162      0.202970
Li	      2.23231      3.93068     -1.99345        -0.019717      0.089495     -0.026816
Mn	      0.00130      3.89545     -3.89113        -0.192815      0.964589     -1.693938
Mn	      2.23494      1.96224     -0.01382        -0.368889      0.415135      0.462004
Mn	      4.46881      2.03468     -2.02811        -0.211097     -0.565215     -0.344119
Mn	      6.70236      1.96240     -0.01364         0.409826     -0.039739      0.908065
O	      4.46883      2.08175     -0.13223         0.170586     -0.533469      0.984173
O	      6.72308      1.89882     -1.89238         0.567173      0.666389     -1.184785
O	      4.46877      3.89091     -1.94371         0.084846      1.224370     -0.661155
O	      6.68375      0.08342     -0.07666         0.143700     -1.116278      0.656235
O	      0.00069      1.84419      0.10419        -0.606028     -0.259743      0.551745
O	      2.21548      1.89823     -1.89292        -0.040373      0.611372     -1.121725
O	      0.00031      3.98127     -2.03505        -0.289741     -0.298313      0.856241
O	      2.25289      0.08365     -0.07642         0.159738     -1.296325      0.804452
