# total energy = -105.20684982 eV
 
CRYSTAL
PRIMVEC
-0.000486 1.992453 1.991215 
9.164509 0.000097 -0.000049 
0.000115 4.049024 -4.050716 
PRIMCOORD
16 1
Li	      6.77464      3.97192     -2.01253        -0.046263      0.172208     -0.130113
Li	      4.51618      3.96989     -3.96927        -0.026284      0.119557     -0.152334
Li	      9.02689      2.01618     -2.01330         0.211606     -0.195282      0.155158
Li	      2.25515      3.97089     -2.01384        -0.012049      0.064196     -0.017484
Mn	      0.00132      3.93530     -3.93093        -0.145093      0.721622     -1.246917
Mn	      2.25779      1.98232     -0.01396        -0.270723      0.290363      0.312850
Mn	      4.51453      2.05550     -2.04885        -0.155651     -0.391984     -0.236789
Mn	      6.77093      1.98248     -0.01378         0.302670     -0.050657      0.648167
O	      4.51454      2.10304     -0.13358         0.128671     -0.393766      0.708066
O	      6.79186      1.91824     -1.91174         0.405700      0.495409     -0.852349
O	      4.51449      3.93071     -1.96360         0.064634      0.877962     -0.485746
O	      6.75213      0.08428     -0.07745         0.113152     -0.806486      0.482561
O	      0.00070      1.86305      0.10526        -0.445470     -0.197159      0.419256
O	      2.23814      1.91765     -1.91229        -0.017442      0.456852     -0.806165
O	      0.00032      4.02200     -2.05587        -0.218409     -0.227875      0.608697
O	      2.27593      0.08451     -0.07720         0.110951     -0.934961      0.593142
