# total energy = -89.78312961 eV
 
CRYSTAL
PRIMVEC
0.000005 2.093008 -2.093007 
0.000010 2.093003 2.093002 
16.860001 -0.000116 -0.000092 
PRIMCOORD
16 1
Li	      2.13897      2.09204     -0.00130         0.020912      0.000585      0.000487
Li	      3.86594      2.09287      2.09167        -0.047732     -0.000440     -0.000087
Li	     12.98923      4.18463      0.00019         0.046873     -0.000244     -0.000386
Li	     14.71774      2.09140     -0.00024        -0.018578      0.001237     -0.000341
Mn	     16.85801      4.18462     -0.00084        -0.000064      0.000890      0.000823
Mn	      8.42810      0.00037     -0.00046        -0.000753     -0.001190      0.000531
Ni	      6.09577      2.09344     -0.00092         0.062202     -0.000584      0.000653
Ni	     10.75987      2.09286     -0.00005        -0.065342      0.000187     -0.000498
O	     15.00022      4.18446     -0.00048         0.120791      0.000716     -0.000470
O	     16.85785      2.09161     -0.00084        -0.000875     -0.000807     -0.000041
O	     10.37863      0.00003     -0.00013        -0.141067     -0.000476     -0.000285
O	     12.67150      2.09190      0.00015         0.215888     -0.000176     -0.000588
O	      6.47744      2.09349      2.09213         0.141870     -0.000547      0.000277
O	      8.42824      2.09340     -0.00046        -0.002832      0.000622     -0.001298
O	      1.85578      4.18489     -0.00104        -0.120102      0.000591      0.000231
O	      4.18404      2.09296     -0.00130        -0.211192     -0.000364      0.000992
