# total energy = -105.40080120 eV
 
CRYSTAL
PRIMVEC
-0.000489 2.002567 2.001323 
9.211030 0.000097 -0.000049 
0.000116 4.069578 -4.071278 
PRIMCOORD
16 1
Li	      6.84360      4.01235     -2.03301        -0.033963      0.114525     -0.081042
Li	      4.56215      4.01029     -4.00967        -0.016457      0.081067     -0.098591
Li	      9.11877      2.03671     -2.03379         0.142305     -0.128524      0.106838
Li	      2.27810      4.01131     -2.03434        -0.007978      0.040216     -0.007902
Mn	      0.00133      3.97535     -3.97094        -0.097927      0.477078     -0.815246
Mn	      2.28078      2.00249     -0.01410        -0.177585      0.177727      0.189996
Mn	      4.56048      2.07642     -2.06971        -0.103637     -0.240423     -0.147121
Mn	      6.83984      2.00265     -0.01392         0.199502     -0.046957      0.411585
O	      4.56049      2.12445     -0.13494         0.084530     -0.262046      0.452701
O	      6.86099      1.93777     -1.93120         0.251067      0.327445     -0.547486
O	      4.56044      3.97072     -1.98359         0.044679      0.561977     -0.326990
O	      6.82085      0.08514     -0.07824         0.087778     -0.517094      0.319317
O	      0.00070      1.88201      0.10633        -0.290403     -0.129262      0.281660
O	      2.26092      1.93717     -1.93175        -0.002980      0.301374     -0.515518
O	      0.00032      4.06294     -2.07680        -0.145748     -0.152224      0.390264
O	      2.29910      0.08537     -0.07799         0.066817     -0.604881      0.387534
