# total energy = -105.42159233 eV
 
CRYSTAL
PRIMVEC
-0.000498 2.043023 2.041754 
9.397111 0.000099 -0.000050 
0.000118 4.151792 -4.153526 
PRIMCOORD
16 1
Li	      7.12290      4.17610     -2.11598         0.031419     -0.084480      0.081313
Li	      4.74822      0.02217     -0.01978         0.016460     -0.057099      0.073802
Li	      0.09381      2.11973     -2.11674        -0.141368      0.105531     -0.094367
Li	      2.37107      4.17502     -2.11737         0.013717     -0.019227      0.016488
Mn	      0.00139      4.13759     -4.13300         0.107117     -0.470962      0.768579
Mn	      2.37386      2.08422     -0.01468         0.145297     -0.125859     -0.126343
Mn	      4.74661      2.16116     -2.15418         0.102467      0.199179      0.049913
Mn	      7.11899      2.08439     -0.01449        -0.192475      0.092296     -0.348271
O	      4.74662      2.21116     -0.14045        -0.076717      0.200993     -0.343113
O	      7.14101      2.01685     -2.01001        -0.239050     -0.287899      0.430301
O	      4.74656      4.13277     -2.06454        -0.042257     -0.441860      0.283738
O	      7.09923      0.08861     -0.08143        -0.086938      0.415730     -0.263152
O	      0.00073      1.95882      0.11067         0.277638      0.143169     -0.320829
O	      2.35319      2.01623     -2.01059         0.000558     -0.255689      0.399265
O	      0.00034      4.22876     -2.16156         0.148572      0.110960     -0.272678
O	      2.39293      0.08885     -0.08117        -0.064441      0.475219     -0.334646
