# total energy = -105.26207666 eV
 
CRYSTAL
PRIMVEC
-0.000501 2.053137 2.051862 
9.443632 0.000099 -0.000051 
0.000119 4.172345 -4.174088 
PRIMCOORD
16 1
Li	      7.19360      4.21755     -2.13698         0.047135     -0.128007      0.117614
Li	      4.79535      0.04305     -0.04065         0.022902     -0.085975      0.105612
Li	      0.14149      2.14077     -2.13776        -0.215357      0.155776     -0.146914
Li	      2.39461      4.21645     -2.13839         0.018244     -0.026935      0.019876
Mn	      0.00128      0.00632      0.00006         0.169515     -0.698893      1.135020
Mn	      2.39743      2.10491     -0.01482         0.217446     -0.175866     -0.168073
Mn	      4.79371      2.18261     -2.17556         0.144449      0.272040      0.066245
Mn	      7.18966      2.10508     -0.01463        -0.293534      0.148761     -0.499329
O	      4.79373      2.23310     -0.14184        -0.116591      0.303861     -0.492864
O	      7.21188      2.03687     -2.02996        -0.337512     -0.427154      0.618180
O	      4.79368      4.17379     -2.08503        -0.061372     -0.634892      0.422572
O	      7.16969      0.08949     -0.08224        -0.134874      0.605834     -0.390014
O	      0.00074      1.97826      0.11177         0.415145      0.206719     -0.484063
O	      2.37655      2.03624     -2.03055        -0.012431     -0.384264      0.580944
O	      0.00034      4.27073     -2.18301         0.224590      0.176629     -0.391706
O	      2.41668      0.08973     -0.08197        -0.087755      0.692367     -0.493100
