# total energy = -105.04522087 eV
 
CRYSTAL
PRIMVEC
-0.000503 2.063251 2.061969 
9.490152 0.000100 -0.000051 
0.000119 4.192898 -4.194650 
PRIMCOORD
16 1
Li	      7.26465      4.25921     -2.15810         0.062703     -0.167962      0.152232
Li	      4.84271      0.06412     -0.06171         0.031697     -0.112909      0.134419
Li	      0.18964      2.16191     -2.15887        -0.288892      0.204430     -0.198074
Li	      2.41826      4.25810     -2.15950         0.022044     -0.034045      0.022974
Mn	      0.00129      0.02703     -0.02060         0.238823     -0.921603      1.493090
Mn	      2.42110      2.12569     -0.01497         0.283585     -0.219932     -0.198856
Mn	      4.84106      2.20417     -2.19705         0.188965      0.335219      0.075721
Mn	      7.26066      2.12587     -0.01478        -0.403827      0.211414     -0.637847
O	      4.84107      2.25516     -0.14324        -0.149125      0.399757     -0.633157
O	      7.28310      2.05699     -2.05001        -0.428989     -0.561214      0.794116
O	      4.84102      4.21502     -2.10563        -0.078806     -0.806690      0.551070
O	      7.24050      0.09037     -0.08305        -0.202540      0.780551     -0.506221
O	      0.00075      1.99781      0.11287         0.551889      0.275850     -0.650768
O	      2.40002      2.05635     -2.05060        -0.025356     -0.503647      0.740476
O	      0.00035      4.31291     -2.20457         0.301145      0.235320     -0.496594
O	      2.44056      0.09062     -0.08278        -0.103318      0.885461     -0.642580
