# total energy = -103.67013412 eV
 
CRYSTAL
PRIMVEC
-0.000513 2.103707 2.102400 
9.676233 0.000102 -0.000052 
0.000122 4.275112 -4.276898 
PRIMCOORD
16 1
Li	      7.55233      4.42787     -2.24356         0.105960     -0.302868      0.262640
Li	      5.03449      0.15049     -0.14801         0.055339     -0.192010      0.219096
Li	      0.38688      2.24753     -2.24436        -0.581164      0.356914     -0.379949
Li	      2.51402      4.42672     -2.24502         0.050073     -0.061068      0.024363
Mn	      0.00135      0.11193     -0.10528         0.623941     -1.748503      2.875814
Mn	      2.51698      2.20987     -0.01556         0.520665     -0.315585     -0.228499
Mn	      5.03277      2.29145     -2.28405         0.340555      0.492863      0.039653
Mn	      7.54818      2.21005     -0.01536        -0.963695      0.521484     -1.100125
O	      5.03278      2.34446     -0.14891        -0.267928      0.714557     -1.041528
O	      7.57152      2.13844     -2.13119        -0.700601     -1.010141      1.314343
O	      5.03273      4.38193     -2.18901        -0.144353     -1.324277      0.998963
O	      7.52722      0.09395     -0.08634        -0.535727      1.338271     -0.892805
O	      0.00078      2.07692      0.11734         1.137248      0.509601     -1.384173
O	      2.49506      2.13778     -2.13181        -0.097543     -0.907476      1.209793
O	      0.00036      4.48370     -2.29187         0.627259      0.438889     -0.784597
O	      2.53720      0.09421     -0.08606        -0.170030      1.489350     -1.132989
