# total energy = -102.71939495 eV
 
CRYSTAL
PRIMVEC
-0.000518 2.123935 2.122615 
9.769274 0.000103 -0.000052 
0.000123 4.316219 -4.318022 
PRIMCOORD
16 1
Li	      7.69827      4.51343     -2.28691         0.090446     -0.367070      0.308084
Li	      5.13177      0.19490     -0.19239         0.038158     -0.217857      0.244916
Li	      0.48828      2.29096     -2.28773        -0.697866      0.412615     -0.455147
Li	      2.56260      4.51226     -2.28840         0.075855     -0.073646      0.021112
Mn	      0.00137      0.15560     -0.14883         0.916153     -2.107480      3.533966
Mn	      2.56561      2.25257     -0.01586         0.641466     -0.333625     -0.227216
Mn	      5.13002      2.33573     -2.32819         0.350059      0.525942     -0.000377
Mn	      7.69404      2.25276     -0.01566        -1.366658      0.714590     -1.312386
O	      5.13003      2.38976     -0.15179        -0.269789      0.829710     -1.168568
O	      7.71783      2.17977     -2.17237        -0.770929     -1.192556      1.488695
O	      5.12997      4.46660     -2.23131        -0.136340     -1.489147      1.172510
O	      7.67267      0.09577     -0.08801        -0.715531      1.538332     -1.019774
O	      0.00079      2.11705      0.11961         1.438846      0.584142     -1.757997
O	      2.54328      2.17909     -2.17300        -0.133352     -1.019189      1.323826
O	      0.00036      4.57034     -2.33616         0.771218      0.540343     -0.888289
O	      2.58622      0.09603     -0.08773        -0.231736      1.654897     -1.263355
