# total energy = -101.64666946 eV
 
CRYSTAL
PRIMVEC
1.939765 4.469508 1.941439 
1.940134 -4.469842 1.941600 
3.884402 -0.000203 -3.886148 
PRIMCOORD
16 1
Li	      3.70805      2.13147     -1.85526        -0.313068     -0.160574     -0.984367
Li	      5.50964      0.00017     -1.80470         0.579700     -0.482405     -0.569536
Li	      3.75704     -0.00355     -0.05066        -0.324134     -0.567684      0.329165
Li	      5.56066      2.13216     -0.00104         0.984652     -0.160829      0.308720
Mn	      5.54322      4.26682     -1.83826         2.527908      1.724122     -2.526711
Mn	      1.85296      2.13267      0.00016        -4.409522      0.126349     -3.572527
Mn	      3.72466      4.26666     -0.01908        -1.290201      2.018506      1.281255
Mn	      3.70546      2.13248      1.85414         3.572617      0.111981      4.395796
O	      3.63680     -2.13341      0.06945         1.427738     -0.580422     -1.417399
O	      1.78403     -0.00153     -0.06838        -1.470943     -0.535194      0.404929
O	      3.63631      2.13092      0.06970         3.218759     -0.111627     -3.196146
O	      1.92214     -2.13431      1.78455        -1.636681     -0.622246      1.627078
O	      3.77462     -0.00194      1.92246        -0.417737     -0.531726      1.479809
O	      3.63577     -0.00092     -1.92741         0.598619     -0.163957     -0.457931
O	      1.92162      2.13020      1.78475        -3.501063      0.095763      3.487374
O	      5.63239     -0.00199      0.07042         0.453356     -0.160057     -0.589508
