# total energy = -102.96614466 eV
 
CRYSTAL
PRIMVEC
1.949921 4.492908 1.951604 
1.950291 -4.493244 1.951766 
3.904739 -0.000204 -3.906494 
PRIMCOORD
16 1
Li	      3.74698      2.15384     -1.87474        -0.277432     -0.142282     -0.845352
Li	      5.56748      0.00018     -1.82364         0.507539     -0.426514     -0.504930
Li	      3.79649     -0.00360     -0.05119        -0.307558     -0.495390      0.302603
Li	      5.61903      2.15454     -0.00105         0.849687     -0.143101      0.272792
Mn	      5.60142      4.31162     -1.85756         2.298012      1.580831     -2.289901
Mn	      1.87241      2.15506      0.00016        -3.761624      0.092227     -3.035164
Mn	      3.76376      4.31145     -0.01928        -1.197243      1.766677      1.203194
Mn	      3.74436      2.15487      1.87361         3.034252      0.093617      3.746572
O	      3.67498     -2.15581      0.07018         1.251661     -0.512905     -1.240770
O	      1.80276     -0.00156     -0.06910        -1.368056     -0.470234      0.343491
O	      3.67449      2.15329      0.07043         2.751966     -0.072056     -2.729195
O	      1.94232     -2.15672      1.80329        -1.436072     -0.568015      1.429163
O	      3.81425     -0.00196      1.94264        -0.362960     -0.465019      1.369378
O	      3.67394     -0.00092     -1.94765         0.540610     -0.177321     -0.469966
O	      1.94179      2.15257      1.80348        -2.987253      0.113245      2.978167
O	      5.69152     -0.00201      0.07116         0.464473     -0.173759     -0.530084
