# total energy = -103.59696212 eV
 
CRYSTAL
PRIMVEC
1.960076 4.516309 1.961768 
1.960449 -4.516647 1.961931 
3.925076 -0.000205 -3.926840 
PRIMCOORD
16 1
Li	      3.78612      2.17634     -1.89432        -0.239748     -0.123461     -0.715978
Li	      5.62563      0.00018     -1.84269         0.426024     -0.374770     -0.423944
Li	      3.83613     -0.00363     -0.05173        -0.267480     -0.426168      0.263619
Li	      5.67772      2.17705     -0.00106         0.717284     -0.124044      0.239970
Mn	      5.65992      4.35665     -1.87696         2.019576      1.396415     -2.012632
Mn	      1.89196      2.17757      0.00016        -3.155856      0.073172     -2.541616
Mn	      3.80307      4.35648     -0.01948        -1.051292      1.523211      1.054828
Mn	      3.78347      2.17737      1.89317         2.541151      0.073164      3.144643
O	      3.71336     -2.17833      0.07092         1.083608     -0.446572     -1.073985
O	      1.82159     -0.00157     -0.06982        -1.195010     -0.399201      0.300317
O	      3.71286      2.17578      0.07116         2.315934     -0.040311     -2.295935
O	      1.96261     -2.17924      1.82212        -1.242972     -0.509799      1.233027
O	      3.85408     -0.00198      1.96293        -0.316267     -0.395708      1.200474
O	      3.71231     -0.00093     -1.96799         0.479134     -0.173658     -0.404604
O	      1.96207      2.17505      1.82232        -2.510602      0.120002      2.497740
O	      5.75096     -0.00203      0.07190         0.396515     -0.172272     -0.465925
