# total energy = -104.13024091 eV
 
CRYSTAL
PRIMVEC
1.970232 4.539709 1.971933 
1.970607 -4.540049 1.972097 
3.945414 -0.000206 -3.947187 
PRIMCOORD
16 1
Li	      3.82545      2.19895     -1.91400        -0.203669     -0.106049     -0.593431
Li	      5.68408      0.00018     -1.86183         0.354591     -0.321592     -0.350992
Li	      3.87599     -0.00367     -0.05227        -0.225189     -0.357910      0.224653
Li	      5.73671      2.19966     -0.00107         0.596706     -0.107072      0.204970
Mn	      5.71872      4.40191     -1.89646         1.735700      1.206078     -1.731776
Mn	      1.91162      2.20019      0.00016        -2.594654      0.056000     -2.083598
Mn	      3.84258      4.40174     -0.01968        -0.896938      1.291218      0.898861
Mn	      3.82278      2.19999      1.91284         2.083573      0.056924      2.586528
O	      3.75194     -2.20095      0.07165         0.916947     -0.385781     -0.907596
O	      1.84052     -0.00159     -0.07055        -1.021225     -0.329762      0.258794
O	      3.75144      2.19838      0.07190         1.905957     -0.014693     -1.888407
O	      1.98300     -2.20188      1.84105        -1.054233     -0.451680      1.042313
O	      3.89413     -0.00201      1.98332        -0.274674     -0.327338      1.028982
O	      3.75088     -0.00094     -1.98844         0.411311     -0.164960     -0.340106
O	      1.98246      2.19764      1.84126        -2.066911      0.118234      2.055551
O	      5.81071     -0.00205      0.07265         0.332707     -0.161616     -0.404746
