# total energy = -104.57054683 eV
 
CRYSTAL
PRIMVEC
1.980388 4.563110 1.982098 
1.980765 -4.563451 1.982262 
3.965751 -0.000207 -3.967533 
PRIMCOORD
16 1
Li	      3.86499      2.22168     -1.93379        -0.169122     -0.086858     -0.480020
Li	      5.74283      0.00018     -1.88107         0.281829     -0.268191     -0.279675
Li	      3.91605     -0.00370     -0.05280        -0.184524     -0.294148      0.180954
Li	      5.79600      2.22240     -0.00108         0.480980     -0.087880      0.168793
Mn	      5.77783      4.44740     -1.91606         1.449199      1.012158     -1.443927
Mn	      1.93138      2.22293      0.00016        -2.071965      0.042029     -1.662804
Mn	      3.88230      4.44724     -0.01989        -0.741471      1.066825      0.747066
Mn	      3.86229      2.22273      1.93261         1.661795      0.042257      2.064691
O	      3.79072     -2.22371      0.07239         0.749639     -0.327730     -0.741650
O	      1.85954     -0.00160     -0.07128        -0.850049     -0.264553      0.212189
O	      3.79021      2.22110      0.07265         1.523273      0.003773     -1.507804
O	      2.00349     -2.22464      1.86008        -0.866321     -0.387298      0.858831
O	      3.93437     -0.00203      2.00382        -0.231004     -0.262399      0.857975
O	      3.78965     -0.00095     -2.00899         0.347980     -0.150338     -0.279925
O	      2.00295      2.22036      1.86029        -1.651932      0.109118      1.643344
O	      5.87077     -0.00207      0.07340         0.271694     -0.146764     -0.338038
