# total energy = -104.92207638 eV
 
CRYSTAL
PRIMVEC
1.990544 4.586511 1.992262 
1.990922 -4.586854 1.992428 
3.986088 -0.000208 -3.987879 
PRIMCOORD
16 1
Li	      3.90473      2.24452     -1.95367        -0.136541     -0.068848     -0.371889
Li	      5.80188      0.00019     -1.90042         0.223714     -0.215297     -0.216244
Li	      3.95632     -0.00374     -0.05335        -0.149763     -0.229973      0.141800
Li	      5.85560      2.24525     -0.00109         0.373737     -0.069686      0.135195
Mn	      5.83724      4.49314     -1.93576         1.159870      0.814400     -1.156154
Mn	      1.95124      2.24579      0.00017        -1.588291      0.030967     -1.273838
Mn	      3.92222      4.49297     -0.02009        -0.587228      0.846872      0.591250
Mn	      3.90200      2.24558      1.95249         1.272773      0.031276      1.584254
O	      3.82970     -2.24657      0.07314         0.591411     -0.269825     -0.582350
O	      1.87866     -0.00161     -0.07201        -0.675188     -0.204469      0.168839
O	      3.82919      2.24394      0.07340         1.169658      0.017930     -1.155229
O	      2.02410     -2.24752      1.87921        -0.683679     -0.324578      0.676276
O	      3.97483     -0.00205      2.02443        -0.187115     -0.201681      0.682104
O	      3.82862     -0.00096     -2.02965         0.276198     -0.130516     -0.216651
O	      2.02355      2.24319      1.87941        -1.266280      0.099803      1.261631
O	      5.93114     -0.00209      0.07415         0.206724     -0.126374     -0.268992
