# total energy = -105.37607986 eV
 
CRYSTAL
PRIMVEC
2.010856 4.633312 2.012591 
2.011238 -4.633658 2.012758 
4.026762 -0.000210 -4.028572 
PRIMCOORD
16 1
Li	      3.98483      2.29056     -1.99374        -0.064342     -0.034362     -0.174808
Li	      5.92089      0.00019     -1.93940         0.097799     -0.108517     -0.103959
Li	      4.03747     -0.00382     -0.05444        -0.069085     -0.110622      0.066845
Li	      5.97572      2.29130     -0.00112         0.173752     -0.032190      0.064389
Mn	      5.95698      4.58530     -1.97547         0.573388      0.410475     -0.569141
Mn	      1.99126      2.29185      0.00017        -0.730051      0.012717     -0.584979
Mn	      4.00267      4.58513     -0.02051        -0.281140      0.420190      0.287040
Mn	      3.98204      2.29165      1.99253         0.582578      0.014150      0.731175
O	      3.90826     -2.29265      0.07464         0.283412     -0.147217     -0.281202
O	      1.91720     -0.00165     -0.07349        -0.323661     -0.094397      0.088264
O	      3.90773      2.28997      0.07490         0.536943      0.025765     -0.531371
O	      2.06561     -2.29362      1.91775        -0.336819     -0.178893      0.326955
O	      4.05636     -0.00209      2.06595        -0.099531     -0.093253      0.337899
O	      3.90715     -0.00098     -2.07128         0.143183     -0.075008     -0.101566
O	      2.06505      2.28920      1.91797        -0.584541      0.063629      0.577668
O	      6.05280     -0.00213      0.07568         0.098116     -0.072465     -0.133209
