# total energy = -105.48510174 eV
 
CRYSTAL
PRIMVEC
2.021011 4.656712 2.022756 
2.021396 -4.657060 2.022924 
4.047100 -0.000212 -4.048918 
PRIMCOORD
16 1
Li	      4.02518      2.31375     -2.01393        -0.034567     -0.015707     -0.083418
Li	      5.98085      0.00019     -1.95904         0.049075     -0.055214     -0.049774
Li	      4.07836     -0.00386     -0.05499        -0.033105     -0.053321      0.033810
Li	      6.03623      2.31451     -0.00113         0.085605     -0.016763      0.033043
Mn	      6.01730      4.63173     -1.99547         0.275645      0.204973     -0.279341
Mn	      2.01143      2.31506      0.00017        -0.351438      0.006887     -0.281057
Mn	      4.04320      4.63156     -0.02071        -0.129221      0.210225      0.136760
Mn	      4.02237      2.31485      2.01271         0.281315      0.006817      0.352952
O	      3.94783     -2.31587      0.07540         0.139163     -0.077030     -0.136652
O	      1.93661     -0.00167     -0.07423        -0.146974     -0.045682      0.048451
O	      3.94730      2.31316      0.07566         0.260522      0.015086     -0.253825
O	      2.08653     -2.31684      1.93717        -0.167688     -0.094227      0.158515
O	      4.09744     -0.00211      2.08688        -0.066492     -0.042681      0.161656
O	      3.94672     -0.00099     -2.09226         0.075379     -0.039900     -0.046297
O	      2.08596      2.31239      1.93739        -0.280690      0.034018      0.274433
O	      6.11410     -0.00216      0.07644         0.043470     -0.037480     -0.069257
