# total energy = -92.59427183 eV
 
CRYSTAL
PRIMVEC
1.990326 4.136747 2.075618 
4.086762 -2.106268 -2.105076 
-0.005125 4.135052 -4.143004 
PRIMCOORD
16 1
Li	      2.08839      1.96452     -0.05971        -0.001598      0.001488     -0.003749
Li	      2.05965     -0.06886     -2.05091        -0.007913     -0.003671      0.008941
Li	      4.00839      6.23451     -2.11935         0.006589      0.002769     -0.009184
Li	      3.97973      4.20080     -4.11040         0.001134     -0.000337      0.005288
Mn	      6.07006      6.16550     -4.17128        -0.000068     -0.000070     -0.000091
Mn	      6.07269      4.09796     -2.09982        -0.002645     -0.000142      0.000247
Ni	      3.98483      2.02113     -2.05496        -0.027091     -0.107465     -0.079426
Ni	      2.08324      4.14412     -2.11508         0.027554      0.109186      0.079821
O	      4.12005      4.03966     -2.11344         0.139900      0.116895     -0.004043
O	      4.08608      1.91077     -4.24682        -0.097482     -0.001292     -0.064930
O	      4.16758      2.01657     -0.06210         0.050726     -0.000461      0.133850
O	      4.07856     -0.10868     -2.23162        -0.000400     -0.078623     -0.005737
O	      1.98201      4.25469      0.07670         0.098920      0.001234      0.065599
O	      1.94795      2.12573     -2.05667        -0.136008     -0.117162      0.002831
O	      1.98954      6.27416     -1.93850         0.000972      0.077552      0.004949
O	      1.90063      4.14886     -4.10791        -0.052592      0.000101     -0.134366
