# total energy = -105.22482473 eV
 
CRYSTAL
PRIMVEC
2.061635 4.750315 2.063414 
2.062027 -4.750670 2.063586 
4.128448 -0.000216 -4.130304 
PRIMCOORD
16 1
Li	      4.18863      2.40770     -2.09571         0.087323      0.046141      0.222902
Li	      2.09525      0.00041      2.09172        -0.125838      0.157111      0.126500
Li	      4.24396     -0.00402     -0.05723         0.101350      0.148372     -0.101793
Li	      4.21969     -2.34182     -2.06459        -0.224058      0.047729     -0.089557
Mn	      0.07155      0.06971     -0.00961        -0.890375     -0.627190      0.882481
Mn	      2.09310      2.40907      0.00018         0.875761     -0.011976      0.684809
Mn	      2.14574      0.06931     -2.08497         0.440246     -0.615454     -0.437534
Mn	      2.12406     -2.34146      0.03102        -0.689026     -0.014288     -0.874836
O	      4.10813     -2.40991      0.07845        -0.371752      0.219300      0.375975
O	      2.01525     -0.00174     -0.07725         0.563199      0.106906     -0.074243
O	      4.10758      2.40709      0.07873        -0.623392     -0.032259      0.627978
O	      2.17126     -2.41092      2.01583         0.431656      0.287758     -0.437019
O	      4.26382     -0.00220      2.17161         0.060689      0.108399     -0.548487
O	      4.10698     -0.00103     -2.17721        -0.167915      0.133963      0.151038
O	      2.17066      2.40628      2.01606         0.683925     -0.090041     -0.684869
O	      6.36236     -0.00225      0.07954        -0.151793      0.135528      0.176656
