# total energy = -105.00181920 eV
 
CRYSTAL
PRIMVEC
2.071791 4.773715 2.073579 
2.072185 -4.774072 2.073751 
4.148785 -0.000217 -4.150650 
PRIMCOORD
16 1
Li	      4.22999      2.43148     -2.11640         0.115347      0.060409      0.287482
Li	      2.13639      0.00041      2.09193        -0.157044      0.209330      0.159809
Li	      4.28587     -0.00405     -0.05779         0.132621      0.193275     -0.134054
Li	      4.27158     -2.34144     -2.07476        -0.289861      0.060505     -0.116339
Mn	      0.10290      0.09391     -0.01994        -1.175166     -0.838232      1.164210
Mn	      2.11377      2.43286      0.00018         1.115544     -0.015092      0.871888
Mn	      2.17714      0.09351     -2.09535         0.571775     -0.821117     -0.568502
Mn	      2.15525     -2.34107      0.04154        -0.875134     -0.015595     -1.113054
O	      4.14871     -2.43371      0.07923        -0.481748      0.307038      0.483075
O	      2.03515     -0.00175     -0.07801         0.748285      0.133807     -0.093162
O	      4.14815      2.43086      0.07951        -0.792425     -0.052614      0.793812
O	      2.19270     -2.43473      2.03574         0.563954      0.398118     -0.565860
O	      4.30593     -0.00222      2.19306         0.083314      0.135552     -0.731669
O	      4.14754     -0.00104     -2.19872        -0.223467      0.183359      0.200306
O	      2.19210      2.43004      2.03597         0.870125     -0.125394     -0.867547
O	      6.42520     -0.00227      0.08033        -0.206120      0.186650      0.229607
