# total energy = -104.72169955 eV
 
CRYSTAL
PRIMVEC
2.081946 4.797116 2.083744 
2.082342 -4.797474 2.083917 
4.169123 -0.000218 -4.170996 
PRIMCOORD
16 1
Li	      4.27156      2.45538     -2.13720         0.139936      0.074842      0.347221
Li	      2.17782      0.00042      2.09204        -0.194395      0.260524      0.191817
Li	      4.32800     -0.00410     -0.05836         0.162882      0.234925     -0.163321
Li	      4.32376     -2.34093     -2.08494        -0.348376      0.074188     -0.140712
Mn	      0.13455      0.11835     -0.03036        -1.451217     -1.049280      1.439577
Mn	      2.13455      2.45677      0.00018         1.331204     -0.017146      1.038332
Mn	      2.20874      0.11794     -2.10572         0.698000     -1.026690     -0.695842
Mn	      2.18663     -2.34057      0.05217        -1.042769     -0.016840     -1.330033
O	      4.18948     -2.45762      0.08001        -0.580808      0.397891      0.585023
O	      2.05515     -0.00177     -0.07877         0.931201      0.155725     -0.105202
O	      4.18892      2.45475      0.08029        -0.939899     -0.069856      0.942364
O	      2.21425     -2.45866      2.05575         0.684185      0.519241     -0.685349
O	      4.34825     -0.00224      2.21461         0.097136      0.156126     -0.913640
O	      4.18830     -0.00105     -2.22032        -0.272202      0.233714      0.246174
O	      2.21365      2.45393      2.05598         1.035342     -0.163745     -1.031527
O	      6.48834     -0.00229      0.08112        -0.250221      0.236382      0.275118
