# total energy = -104.38913413 eV
 
CRYSTAL
PRIMVEC
2.092102 4.820516 2.093908 
2.092500 -4.820877 2.094082 
4.189460 -0.000219 -4.191343 
PRIMCOORD
16 1
Li	      4.31334      2.47939     -2.15811         0.163041      0.087613      0.402388
Li	      2.21955      0.00042      2.09206        -0.223757      0.311756      0.221426
Li	      4.37032     -0.00413     -0.05893         0.189386      0.273960     -0.189284
Li	      4.37626     -2.34031     -2.09512        -0.403669      0.085763     -0.163222
Mn	      0.16651      0.14302     -0.04089        -1.720837     -1.261772      1.705704
Mn	      2.15542      2.48080      0.00018         1.525994     -0.015284      1.185516
Mn	      2.24055      0.14261     -2.11610         0.823143     -1.233500     -0.819616
Mn	      2.21822     -2.33994      0.06289        -1.190588     -0.016141     -1.521830
O	      4.23045     -2.48166      0.08080        -0.672283      0.497078      0.675229
O	      2.07526     -0.00179     -0.07955         1.113374      0.170374     -0.112395
O	      4.22989      2.47876      0.08107        -1.067904     -0.090985      1.070295
O	      2.23591     -2.48270      2.07585         0.790313      0.645783     -0.794079
O	      4.39077     -0.00226      2.23627         0.104141      0.173346     -1.093474
O	      4.22926     -0.00106     -2.24204        -0.310895      0.284901      0.289967
O	      2.23529      2.47792      2.07608         1.176561     -0.200504     -1.172676
O	      6.55180     -0.00231      0.08191        -0.296021      0.287611      0.316050
