# total energy = -103.57786120 eV
 
CRYSTAL
PRIMVEC
2.112414 4.867317 2.114237 
2.112816 -4.867681 2.114413 
4.230134 -0.000221 -4.232035 
PRIMCOORD
16 1
Li	      4.39750      2.52777     -2.20022         0.202905      0.107942      0.496092
Li	      2.30393      0.00043      2.09179        -0.269708      0.409883      0.269702
Li	      4.45559     -0.00422     -0.06008         0.237168      0.345215     -0.239002
Li	      4.48215     -2.33872     -2.11547        -0.500267      0.108721     -0.205408
Mn	      0.23134      0.19306     -0.06225        -2.227505     -1.684094      2.212789
Mn	      2.19748      2.52920      0.00018         1.843469     -0.011220      1.424564
Mn	      2.30478      0.19265     -2.13687         1.046954     -1.649798     -1.040646
Mn	      2.28201     -2.33835      0.08465        -1.429417     -0.007966     -1.842644
O	      4.31300     -2.53008      0.08237        -0.819598      0.715817      0.821874
O	      2.11575     -0.00182     -0.08110         1.475682      0.188875     -0.101158
O	      4.31242      2.52712      0.08265        -1.264521     -0.130563      1.263907
O	      2.27953     -2.53115      2.11636         0.970128      0.924009     -0.972426
O	      4.47644     -0.00231      2.27990         0.101166      0.190883     -1.452135
O	      4.31178     -0.00108     -2.28578        -0.378238      0.383785      0.386024
O	      2.27891      2.52627      2.11659         1.399178     -0.277430     -1.398423
O	      6.67963     -0.00235      0.08351        -0.387395      0.385941      0.376891
