# total energy = -103.10611432 eV
 
CRYSTAL
PRIMVEC
2.122570 4.890718 2.124402 
2.122973 -4.891084 2.124578 
4.250471 -0.000222 -4.252382 
PRIMCOORD
16 1
Li	      4.43989      2.55214     -2.22142         0.219462      0.116123      0.538837
Li	      2.34657      0.00043      2.09150        -0.288930      0.457904      0.286186
Li	      4.49854     -0.00425     -0.06066         0.260577      0.375348     -0.259924
Li	      4.53555     -2.33775     -2.12565        -0.542821      0.116122     -0.221895
Mn	      0.26421      0.21844     -0.07308        -2.462052     -1.894253      2.441360
Mn	      2.21866      2.55358      0.00019         1.971408     -0.001327      1.516759
Mn	      2.33719      0.21802     -2.14725         1.146675     -1.860080     -1.144350
Mn	      2.31421     -2.33737      0.09568        -1.523213     -0.000966     -1.970856
O	      4.35457     -2.55447      0.08316        -0.872804      0.837230      0.877337
O	      2.13614     -0.00184     -0.08188         1.649969      0.189599     -0.092924
O	      4.35398      2.55148      0.08345        -1.329173     -0.148447      1.332081
O	      2.30150     -2.55554      2.13675         1.038173      1.071252     -1.035355
O	      4.51959     -0.00233      2.30188         0.086814      0.192074     -1.626615
O	      4.35334     -0.00109     -2.30782        -0.406020      0.430746      0.427953
O	      2.30088      2.55062      2.13699         1.482466     -0.313729     -1.474065
O	      6.74401     -0.00238      0.08432        -0.430529      0.432405      0.405470
