# total energy = -102.59619189 eV
 
CRYSTAL
PRIMVEC
2.132726 4.914118 2.134567 
2.133131 -4.914486 2.134744 
4.270809 -0.000223 -4.272728 
PRIMCOORD
16 1
Li	      4.48248      2.57662     -2.24273         0.234665      0.122074      0.580148
Li	      2.38951      0.00043      2.09112        -0.301996      0.505300      0.302032
Li	      4.54169     -0.00430     -0.06124         0.280198      0.405226     -0.278975
Li	      4.58927     -2.33666     -2.13582        -0.583470      0.122620     -0.236636
Mn	      0.29738      0.24404     -0.08401        -2.680606     -2.102791      2.657320
Mn	      2.23994      2.57807      0.00019         2.079798      0.013815      1.590999
Mn	      2.36982      0.24362     -2.15763         1.236218     -2.072007     -1.235485
Mn	      2.34661     -2.33628      0.10681        -1.595973      0.012457     -2.078773
O	      4.39634     -2.57897      0.08396        -0.912286      0.961429      0.913587
O	      2.15663     -0.00186     -0.08267         1.817166      0.186717     -0.073113
O	      4.39575      2.57596      0.08426        -1.376021     -0.165916      1.375254
O	      2.32358     -2.58006      2.15725         1.084599      1.212372     -1.081368
O	      4.56294     -0.00235      2.32396         0.070421      0.189915     -1.793739
O	      4.39510     -0.00111     -2.32995        -0.424842      0.476166      0.466388
O	      2.32294      2.57509      2.15749         1.539366     -0.345230     -1.531718
O	      6.80870     -0.00240      0.08513        -0.467237      0.477853      0.424078
