# total energy = -102.32470872 eV
 
CRYSTAL
PRIMVEC
2.070577 3.947930 1.955673 
2.034775 -3.956151 2.011177 
4.147658 0.045711 -4.009025 
PRIMCOORD
16 1
Li	      3.93887      1.90601     -1.92886        -0.004132      0.134447     -0.710065
Li	      1.92969     -0.03220      1.84375        -0.820959     -0.039018     -0.168211
Li	      3.91702      1.88031      1.85926        -0.195842      0.266734      0.480024
Li	      3.93940      0.04454      0.01689        -0.093429     -0.157311     -0.211211
Mn	      7.81530      0.00797     -0.06260         2.888921     -0.164045      0.043545
Mn	      3.90056     -1.87214      1.88546        -0.149608     -3.318894      2.366672
Mn	      1.99322      0.04854     -1.88559        -1.635227     -0.049647     -1.687213
Mn	      5.88759      1.90337     -0.04447         2.229705      3.543971     -0.426297
O	      3.90144     -1.93727      0.11653        -0.256635     -0.548878     -1.953969
O	      2.03178      0.12421     -0.11035        -0.820459     -0.207027      1.247403
O	      4.08834      2.03105     -0.04189        -1.747311      0.406982     -0.148294
O	      5.72090     -1.97445     -1.90552         1.101324     -1.412714     -0.651301
O	      3.83601     -0.11088      1.97134        -0.114828      3.077774      1.060026
O	      4.01390     -0.08556     -2.05617        -0.047070      0.267920     -1.085544
O	      1.96713      1.95060      1.74444        -0.941357      1.210390      1.466261
O	      5.79479      0.14230      0.10918         0.606905     -3.010684      0.378174
