# total energy = -89.07766740 eV
 
CRYSTAL
PRIMVEC
-0.003050 2.126927 2.141398 
4.048349 -0.033751 0.027805 
-0.124797 8.793271 -8.850823 
PRIMCOORD
16 1
Li	      0.00144      4.59902     -0.44747         0.002273     -0.015831      0.015455
Li	      0.01650      4.41974     -4.42690        -0.013366      0.028280     -0.015153
Li	      1.93352      6.49120     -4.42536        -0.003132      0.003473     -0.022935
Li	      3.86632      6.28174     -6.29861         0.022247     -0.013864      0.003886
Mn	      3.88876      8.75943     -8.77209        -0.004641     -0.009886      0.012298
Mn	      2.00705      2.24877     -0.20050        -0.001093     -0.011060      0.019396
Ni	      2.04347      4.48713     -2.34996        -0.027730     -0.085657      0.093263
Ni	      1.83349      8.52997     -6.44595         0.016441      0.055467     -0.061858
O	      1.86338      8.75037     -4.54175         0.021253     -0.114857      0.147711
O	      3.87724      8.91299     -6.81764        -0.015832     -0.110284     -0.141531
O	      2.02881      4.29040     -4.24630         0.001224      0.078350     -0.098720
O	     -0.07032      6.53165     -4.40720        -0.013437     -0.017789      0.027892
O	      2.01892      4.16075     -0.13186         0.005685      0.002729     -0.017838
O	      0.00670      4.32800     -2.28843         0.020957     -0.003162     -0.022818
O	      1.99235      0.21069     -0.03679        -0.007426      0.085863     -0.028528
O	      4.02677      2.00541      0.20987        -0.003423      0.128228      0.089481
