# total energy = -104.12497334 eV
 
CRYSTAL
PRIMVEC
2.103271 4.010265 1.986552 
2.066903 -4.018617 2.042933 
4.213147 0.046433 -4.072326 
PRIMCOORD
16 1
Li	      4.06424      1.96667     -1.99025        -0.021113      0.068050     -0.443976
Li	      1.99111     -0.03322      1.90243        -0.519834     -0.027128     -0.145794
Li	      4.04170      1.94016      1.91844        -0.164543      0.170024      0.283783
Li	      4.06479      0.04596      0.01742        -0.057977     -0.106867     -0.124347
Mn	      8.06405      0.00822     -0.06459         1.889325     -0.061189      0.079743
Mn	      4.02471     -1.93173      1.94547        -0.075753     -2.083919      1.390967
Mn	      2.05666      0.05009     -1.94561        -1.014721     -0.013461     -0.979112
Mn	      6.07498      1.96395     -0.04588         1.360773      2.195073     -0.207896
O	      4.02562     -1.99893      0.12025        -0.151709     -0.374728     -1.072064
O	      2.09645      0.12817     -0.11387        -0.533464     -0.121717      0.680705
O	      4.21847      2.09569     -0.04322        -0.970060      0.240798     -0.094986
O	      5.90299     -2.03729     -1.96617         0.693075     -0.977596     -0.465338
O	      3.95810     -0.11441      2.03409        -0.153500      1.875874      0.666872
O	      4.14166     -0.08829     -2.12161        -0.138615      0.194032     -0.743993
O	      2.02975      2.01268      1.79997        -0.622305      0.825012      0.947100
O	      5.97923      0.14683      0.11265         0.480421     -1.802258      0.228336
