# total energy = -104.90478258 eV
 
CRYSTAL
PRIMVEC
2.125066 4.051822 2.007138 
2.088322 -4.060260 2.064103 
4.256807 0.046914 -4.114526 
PRIMCOORD
16 1
Li	      4.14891      2.00765     -2.03172        -0.022672      0.041160     -0.296324
Li	      2.03258     -0.03391      1.94206        -0.347229     -0.021435     -0.120675
Li	      4.12589      1.98058      1.95840        -0.124877      0.115959      0.181205
Li	      4.14947      0.04692      0.01779        -0.041334     -0.078393     -0.078394
Mn	      8.23204      0.00840     -0.06594         1.298075     -0.020307      0.077006
Mn	      4.10856     -1.97197      1.98600        -0.040151     -1.394562      0.886300
Mn	      2.09950      0.05113     -1.98614        -0.662095     -0.001231     -0.610271
Mn	      6.20154      2.00486     -0.04684         0.895445      1.449972     -0.109334
O	      4.10948     -2.04057      0.12275        -0.097111     -0.261138     -0.640984
O	      2.14012      0.13084     -0.11624        -0.366823     -0.075355      0.408793
O	      4.30635      2.13935     -0.04412        -0.587356      0.152575     -0.062831
O	      6.02596     -2.07973     -2.00713         0.452630     -0.686176     -0.332119
O	      4.04056     -0.11679      2.07646        -0.139355      1.223325      0.439864
O	      4.22794     -0.09012     -2.16581        -0.147564      0.138635     -0.521935
O	      2.07203      2.05461      1.83747        -0.428818      0.576504      0.633435
O	      6.10380      0.14989      0.11500         0.359235     -1.159532      0.146262
