# total energy = -105.18341179 eV
 
CRYSTAL
PRIMVEC
2.135964 4.072601 2.017431 
2.099031 -4.081082 2.074688 
4.278636 0.047155 -4.135626 
PRIMCOORD
16 1
Li	      4.19157      2.02829     -2.05261        -0.023225      0.030366     -0.230452
Li	      2.05348     -0.03426      1.96203        -0.268223     -0.017265     -0.102624
Li	      4.16832      2.00095      1.97854        -0.104548      0.091687      0.137174
Li	      4.19214      0.04740      0.01797        -0.031042     -0.062656     -0.056177
Mn	      8.31669      0.00848     -0.06661         1.019919     -0.005941      0.068199
Mn	      4.15080     -1.99225      2.00642        -0.027770     -1.082638      0.668512
Mn	      2.12109      0.05166     -2.00656        -0.507085      0.001190     -0.451968
Mn	      6.26531      2.02548     -0.04732         0.689010      1.116523     -0.072942
O	      4.15174     -2.06155      0.12401        -0.070911     -0.202703     -0.463037
O	      2.16213      0.13218     -0.11743        -0.288811     -0.054006      0.301674
O	      4.35064      2.16135     -0.04458        -0.434436      0.112327     -0.046564
O	      6.08793     -2.10112     -2.02777         0.347977     -0.546692     -0.272934
O	      4.08211     -0.11799      2.09781        -0.123294      0.938447      0.335917
O	      4.27142     -0.09105     -2.18808        -0.133290      0.109742     -0.412066
O	      2.09334      2.07574      1.85636        -0.339471      0.452130      0.487269
O	      6.16656      0.15143      0.11618         0.295200     -0.880512      0.110020
