# total energy = -105.62725271 eV
 
CRYSTAL
PRIMVEC
2.168657 4.134937 2.048310 
2.131159 -4.143548 2.106444 
4.344126 0.047876 -4.198927 
PRIMCOORD
16 1
Li	      4.32086      2.09085     -2.11592        -0.007132      0.006066     -0.053187
Li	      2.11683     -0.03532      2.02255        -0.064858      0.002760     -0.047742
Li	      4.29690      2.06267      2.03957        -0.029487      0.024663      0.029378
Li	      4.32145      0.04886      0.01852        -0.007366     -0.023561      0.005899
Mn	      8.57323      0.00875     -0.06867         0.242831      0.004617      0.021219
Mn	      4.27884     -2.05370      2.06832        -0.003241     -0.254485      0.142132
Mn	      2.18652      0.05325     -2.06846        -0.103814      0.002777     -0.073741
Mn	      6.45857      2.08796     -0.04878         0.160179      0.252973     -0.010517
O	      4.27981     -2.12515      0.12783        -0.012656     -0.039276     -0.072022
O	      2.22883      0.13626     -0.12106        -0.068137     -0.014442      0.061902
O	      4.48484      2.22802     -0.04596        -0.086410      0.011259     -0.003888
O	      6.27572     -2.16593     -2.09032         0.074748     -0.120880     -0.073505
O	      4.20803     -0.12163      2.16253        -0.041357      0.219394      0.062530
O	      4.40317     -0.09386     -2.25557        -0.045189      0.031800     -0.097046
O	      2.15791      2.13977      1.91362        -0.082730      0.095706      0.094424
O	      6.35678      0.15610      0.11977         0.074620     -0.199370      0.014162
