# total energy = -105.63505913 eV
 
CRYSTAL
PRIMVEC
2.190453 4.176494 2.068896 
2.152578 -4.185192 2.127614 
4.387785 0.048358 -4.241127 
PRIMCOORD
16 1
Li	      4.40815      2.13309     -2.15867         0.008427     -0.004457      0.049891
Li	      2.15959     -0.03603      2.06341         0.051082      0.019698     -0.005954
Li	      2.19325     -2.07215      0.01188         0.030072     -0.016753     -0.026354
Li	      4.40875      0.04985      0.01890         0.006256      0.000363      0.039553
Mn	      2.20606      4.14576      2.04346        -0.237384     -0.011686     -0.029578
Mn	      2.21270      2.09000     -0.01752        -0.000368      0.211787     -0.118575
Mn	      2.23069      0.05433     -2.11024         0.111396     -0.002720      0.116511
Mn	      4.39860     -2.04635     -2.11866        -0.129386     -0.215851     -0.002853
O	      4.36627     -2.16808      0.13042         0.021743      0.063735      0.088231
O	      2.27385      0.13902     -0.12350         0.076598     -0.002722     -0.035027
O	      4.57544      2.27303     -0.04688         0.051290     -0.045796      0.019086
O	      6.40250     -2.20968     -2.13255        -0.069778      0.148197      0.060000
O	      4.29303     -0.12409      2.20621         0.036575     -0.162794     -0.090941
O	      4.49213     -0.09576     -2.30114         0.053803     -0.009284      0.097740
O	      2.20150      2.18299      1.95228         0.069534     -0.119584     -0.130168
O	      6.48520      0.15925      0.12218        -0.079860      0.147867     -0.031564
