# total energy = -105.56321137 eV
 
CRYSTAL
PRIMVEC
2.201351 4.197273 2.079189 
2.163287 -4.206013 2.138199 
4.409615 0.048598 -4.262227 
PRIMCOORD
16 1
Li	      4.45212      2.15437     -2.18020         0.019516     -0.008220      0.096049
Li	      2.18114     -0.03639      2.08399         0.101982      0.031376      0.014547
Li	      2.22608     -2.07194      0.02234         0.061318     -0.037321     -0.050606
Li	      4.45272      0.05035      0.01909         0.007934      0.011139      0.054763
Mn	      0.05942     -0.03085     -0.02592        -0.469050     -0.022524     -0.057470
Mn	      2.24554      2.08992     -0.00705        -0.002832      0.424876     -0.231177
Mn	      2.25295      0.05487     -2.13129         0.206234     -0.007879      0.193478
Mn	      4.45342     -2.04588     -2.12945        -0.261373     -0.423212     -0.012142
O	      4.40982     -2.18970      0.13172         0.037088      0.115354      0.145380
O	      2.29653      0.14040     -0.12473         0.150015     -0.001224     -0.066677
O	      4.62108      2.29570     -0.04735         0.102353     -0.069083      0.031898
O	      6.46636     -2.23172     -2.15382        -0.128719      0.277399      0.124287
O	      4.33586     -0.12532      2.22821         0.076891     -0.325985     -0.154559
O	      4.53694     -0.09671     -2.32410         0.111533     -0.028431      0.190105
O	      2.22346      2.20477      1.97175         0.143830     -0.221760     -0.232155
O	      6.54988      0.16084      0.12341        -0.156719      0.285495     -0.045720
