# total energy = -105.44473570 eV
 
CRYSTAL
PRIMVEC
2.212248 4.218051 2.089482 
2.173996 -4.226835 2.148784 
4.431445 0.048839 -4.283327 
PRIMCOORD
16 1
Li	      4.49631      2.17575     -2.20184         0.033375     -0.013211      0.137623
Li	      2.20278     -0.03675      2.10468         0.150473      0.044807      0.035115
Li	      2.25912     -2.07162      0.03291         0.087510     -0.058740     -0.073213
Li	      4.49692      0.05085      0.01927         0.015280      0.023068      0.067808
Mn	      0.10366     -0.03095     -0.02640        -0.696887     -0.042942     -0.088144
Mn	      2.27859      2.08974      0.00351        -0.007017      0.624727     -0.328897
Mn	      2.27531      0.05541     -2.15245         0.293611     -0.012326      0.261210
Mn	      4.50858     -2.04531     -2.14024        -0.381005     -0.614980     -0.026822
O	      4.45359     -2.21144      0.13303         0.047953      0.167451      0.186820
O	      2.31933      0.14179     -0.12597         0.224867     -0.004521     -0.091829
O	      4.66694      2.31849     -0.04782         0.138800     -0.088829      0.045171
O	      6.53054     -2.25388     -2.17520        -0.181134      0.404977      0.189996
O	      4.37889     -0.12657      2.25033         0.123362     -0.472396     -0.216483
O	      4.58196     -0.09767     -2.34717         0.174581     -0.046125      0.283398
O	      2.24553      2.22665      1.99132         0.215383     -0.322541     -0.325941
O	      6.61490      0.16244      0.12463        -0.239152      0.411579     -0.055813
