# total energy = -91.18672476 eV
 
CRYSTAL
PRIMVEC
0.000180 2.057967 2.061025 
6.192489 0.065372 -2.125061 
-2.054995 6.467923 -4.414603 
PRIMCOORD
16 1
Li	      4.04995      2.32820     -2.32805         0.000552      0.079421     -0.079176
Li	      2.11885      4.43670     -2.38557         0.052127      0.001085      0.006204
Li	      4.11699      4.24020     -4.23690        -0.024606     -0.076160      0.070890
Li	      0.09164      6.21106     -2.09427        -0.030095     -0.015156      0.017020
Mn	      6.13620      2.12437     -0.06118         0.040239      0.022392     -0.011477
Mn	      2.13248      2.13915     -0.07713         0.020262      0.007307     -0.012413
Ni	     -0.08380      4.32120     -0.20208        -0.016550     -0.050230      0.049371
Ni	      2.08767      6.39969     -4.34411         0.002160      0.016622     -0.004389
O	      0.06148      4.21689     -2.15757         0.015830      0.089123     -0.087887
O	      0.02655      2.01404      0.05113         0.015747     -0.036541      0.031840
O	      4.15772      6.66091     -4.60380         0.084021      0.005047     -0.021414
O	      4.17282      4.29133     -2.23011        -0.047347      0.013832     -0.019751
O	      0.00748      6.63904     -4.58500        -0.088465      0.036034     -0.030807
O	      4.09538      2.04985      0.01275        -0.020240      0.058257     -0.056256
O	      2.07130      6.50053     -2.38589        -0.038009     -0.136900      0.132164
O	      2.02088      2.00912     -2.00563         0.034375     -0.014133      0.016082
