# total energy = -105.28278199 eV
 
CRYSTAL
PRIMVEC
2.223146 4.238830 2.099775 
2.184706 -4.247657 2.159369 
4.453275 0.049079 -4.304427 
PRIMCOORD
16 1
Li	      4.54072      2.19724     -2.22359         0.049806     -0.017412      0.176570
Li	      2.22454     -0.03711      2.12547         0.196013      0.060553      0.055884
Li	      2.29239     -2.07121      0.04357         0.120074     -0.076817     -0.091421
Li	      4.54133      0.05135      0.01946         0.018894      0.034310      0.080369
Mn	      0.14833     -0.03106     -0.02688        -0.924706     -0.064494     -0.118872
Mn	      2.31185      2.08946      0.01419        -0.014986      0.811998     -0.413233
Mn	      2.29778      0.05596     -2.17371         0.374844     -0.020031      0.317454
Mn	      4.56406     -2.04463     -2.15103        -0.493099     -0.790953     -0.045728
O	      4.49758     -2.23328      0.13434         0.061507      0.215375      0.213744
O	      2.34223      0.14319     -0.12721         0.304017     -0.011616     -0.106993
O	      4.71304      2.34139     -0.04829         0.160800     -0.108252      0.057489
O	      6.59505     -2.27614     -2.19668        -0.235081      0.530927      0.257568
O	      4.42214     -0.12782      2.27256         0.177937     -0.606260     -0.272096
O	      4.62722     -0.09864     -2.37035         0.244155     -0.057657      0.368695
O	      2.26771      2.24865      2.01099         0.282239     -0.417706     -0.411378
O	      6.68023      0.16404      0.12586        -0.322413      0.518033     -0.068050
