# total energy = -105.08003411 eV
 
CRYSTAL
PRIMVEC
2.234044 4.259608 2.110068 
2.195415 -4.268479 2.169954 
4.475104 0.049320 -4.325527 
PRIMCOORD
16 1
Li	      4.58535      2.21884     -2.24544         0.064771     -0.022463      0.217695
Li	      2.24640     -0.03748      2.14636         0.235937      0.077013      0.076281
Li	      2.32587     -2.07068      0.05435         0.151861     -0.095034     -0.107873
Li	      4.58597      0.05185      0.01966         0.026189      0.043921      0.092329
Mn	      0.19344     -0.03116     -0.02737        -1.148329     -0.095547     -0.153341
Mn	      2.34534      2.08907      0.02496        -0.023541      0.986834     -0.487698
Mn	      2.32036      0.05651     -2.19507         0.450083     -0.027467      0.366519
Mn	      4.61987     -2.04384     -2.16183        -0.599094     -0.950348     -0.070120
O	      4.54178     -2.25523      0.13566         0.072472      0.263578      0.227432
O	      2.36525      0.14460     -0.12847         0.387929     -0.019336     -0.112525
O	      4.75936      2.36440     -0.04877         0.176667     -0.123725      0.064277
O	      2.18475     -2.34783      2.10725        -0.278289      0.650470      0.321898
O	      4.46560     -0.12907      2.29489         0.225436     -0.722501     -0.324439
O	      4.67269     -0.09960     -2.39364         0.312718     -0.070602      0.456946
O	      2.29000      2.27074      2.03076         0.344790     -0.506607     -0.487151
O	      6.74588      0.16565      0.12710        -0.399601      0.611815     -0.080230
