# total energy = -104.83910648 eV
 
CRYSTAL
PRIMVEC
2.244942 4.280387 2.120361 
2.206124 -4.289301 2.180540 
4.496934 0.049560 -4.346628 
PRIMCOORD
16 1
Li	      4.63019      2.24054     -2.26740         0.082806     -0.027503      0.253281
Li	      2.26837     -0.03784      2.16735         0.273477      0.096731      0.094735
Li	      2.35956     -2.07005      0.06522         0.182694     -0.113403     -0.124762
Li	      4.63081      0.05236      0.01985         0.027603      0.052032      0.101832
Mn	      0.23898     -0.03128     -0.02786        -1.376760     -0.122618     -0.184750
Mn	      2.37903      2.08857      0.03584        -0.036717      1.152243     -0.553736
Mn	      2.34305      0.05706     -2.21653         0.516022     -0.036004      0.406950
Mn	      4.67600     -2.04295     -2.17263        -0.697463     -1.092516     -0.103253
O	      4.58619     -2.27728      0.13699         0.082290      0.306979      0.235512
O	      2.38838      0.14601     -0.12972         0.477123     -0.031717     -0.111925
O	      4.80590      2.38752     -0.04924         0.182238     -0.133574      0.078400
O	      2.22806     -2.37055      2.10666        -0.311639      0.765181      0.389500
O	      4.50928     -0.13034      2.31734         0.278816     -0.829297     -0.371569
O	      4.71839     -0.10058     -2.41705         0.391686     -0.079726      0.536053
O	      2.31239      2.29295      2.05062         0.405748     -0.590361     -0.559582
O	      6.81185      0.16727      0.12834        -0.477925      0.683553     -0.086686
