# total energy = -104.25280328 eV
 
CRYSTAL
PRIMVEC
2.266737 4.321944 2.140947 
2.227543 -4.330944 2.201710 
4.540594 0.050042 -4.388828 
PRIMCOORD
16 1
Li	      4.72053      2.28425     -2.31164         0.125214     -0.035227      0.323087
Li	      2.31263     -0.03858      2.20963         0.339672      0.140069      0.132585
Li	      2.42761     -2.06848      0.08728         0.247501     -0.150711     -0.149623
Li	      4.72117      0.05338      0.02024         0.032557      0.068996      0.118752
Mn	      0.33136     -0.03148     -0.02886        -1.839885     -0.197444     -0.253740
Mn	      2.44708      2.08728      0.05792        -0.059708      1.456352     -0.657530
Mn	      2.38877      0.05817     -2.25979         0.635504     -0.057744      0.463940
Mn	      4.78924     -2.04085     -2.19424        -0.873600     -1.345576     -0.175364
O	      4.67568     -2.32172      0.13966         0.097016      0.389373      0.211544
O	      2.43499      0.14886     -0.13225         0.667885     -0.071424     -0.093184
O	      4.89967      2.43411     -0.05020         0.151692     -0.152910      0.101996
O	      2.31561     -2.41631      2.10515        -0.368986      0.982359      0.512067
O	      4.59726     -0.13288      2.36255         0.397203     -1.001784     -0.446275
O	      4.81046     -0.10254     -2.46421         0.551379     -0.077754      0.684465
O	      2.35751      2.33769      2.09063         0.527344     -0.740867     -0.682466
O	      6.94476      0.17054      0.13084        -0.630788      0.794292     -0.090254
