# total energy = -103.91167609 eV
 
CRYSTAL
PRIMVEC
2.277635 4.342723 2.151240 
2.238252 -4.351766 2.212295 
4.562423 0.050282 -4.409928 
PRIMCOORD
16 1
Li	      4.76603      2.30627     -2.33392         0.148556     -0.040754      0.356826
Li	      2.33492     -0.03896      2.23093         0.368853      0.165354      0.150207
Li	      2.46196     -2.06754      0.09846         0.275508     -0.168796     -0.162032
Li	      4.76668      0.05390      0.02043         0.037129      0.078200      0.125612
Mn	      0.37820     -0.03159     -0.02935        -2.077065     -0.241766     -0.286197
Mn	      2.48143      2.08648      0.06912        -0.074540      1.596156     -0.697184
Mn	      2.41179      0.05873     -2.28157         0.689230     -0.069168      0.482169
Mn	      4.84635     -2.03965     -2.20505        -0.953117     -1.454865     -0.215868
O	      4.72074     -2.34410      0.14101         0.102281      0.424077      0.189043
O	      2.45846      0.15030     -0.13353         0.770275     -0.099290     -0.076393
O	      4.94690      2.45757     -0.05068         0.124562     -0.153306      0.113212
O	      2.35987     -2.43936      2.10424        -0.386766      1.080060      0.575989
O	      4.64157     -0.13416      2.38533         0.459259     -1.066763     -0.479974
O	      4.85682     -0.10353     -2.48796         0.635257     -0.072404      0.748858
O	      2.38023      2.36022      2.11078         0.582606     -0.806120     -0.734999
O	      7.01170      0.17218      0.13210        -0.702027      0.829385     -0.089269
