# total energy = -103.54124039 eV
 
CRYSTAL
PRIMVEC
2.288533 4.363501 2.161533 
2.248962 -4.372588 2.222880 
4.584253 0.050523 -4.431028 
PRIMCOORD
16 1
Li	      4.81175      2.32840     -2.35631         0.170769     -0.048286      0.387949
Li	      2.35732     -0.03933      2.25233         0.393141      0.191426      0.165493
Li	      2.49653     -2.06650      0.10975         0.308507     -0.188536     -0.173121
Li	      4.81240      0.05441      0.02063         0.039824      0.083362      0.131774
Mn	      0.42547     -0.03170     -0.02986        -2.321381     -0.285811     -0.318833
Mn	      2.51599      2.08557      0.08041        -0.089338      1.729144     -0.730566
Mn	      2.43493      0.05930     -2.30345         0.738981     -0.083193      0.492342
Mn	      4.90379     -2.03833     -2.21585        -1.027938     -1.549782     -0.259421
O	      4.76603     -2.36658      0.14236         0.111866      0.458539      0.162703
O	      2.48204      0.15174     -0.13481         0.877122     -0.132821     -0.055425
O	      4.99435      2.48114     -0.05117         0.085328     -0.158240      0.122131
O	      2.40444     -2.46252      2.10323        -0.399363      1.171767      0.637632
O	      4.68609     -0.13545      2.40821         0.521892     -1.122008     -0.504568
O	      4.90341     -0.10452     -2.51183         0.725918     -0.058289      0.808798
O	      2.40307      2.38286      2.13103         0.638386     -0.861565     -0.779744
O	      7.07896      0.17384      0.13337        -0.773715      0.854294     -0.087145
