# total energy = -101.58789673 eV
 
CRYSTAL
PRIMVEC
2.024220 3.989778 2.000600 
2.030944 -3.986616 1.987604 
4.055420 -0.009764 -3.988179 
PRIMCOORD
16 1
Li	      1.95009     -0.01547     -1.85776        -1.073665      0.014232     -0.372784
Li	      3.77265      1.86263     -1.83806         0.191143      0.292558     -0.662662
Li	      2.00870     -1.90027     -0.05259        -0.714995     -0.405812      0.167417
Li	      3.93919     -0.00359      0.07269         0.340459     -0.024107      0.029278
Mn	      7.67924      0.00155     -0.02447         3.748199     -0.081984     -0.331109
Mn	      2.02913      1.88959     -0.04936        -0.886118      3.335717     -1.374450
Mn	      1.90094      0.01278      1.86496        -0.873730     -0.964331      2.562164
Mn	      3.78443     -1.87600     -1.81925        -0.816549     -3.094525     -0.904994
O	      3.85898     -1.83603      0.11400         0.048821     -1.454053      0.423910
O	      1.75963      0.10268      0.04252        -1.521644     -2.537550     -2.362061
O	      3.97598      1.82124      0.00956         0.480672      1.450280      0.022118
O	      5.61260     -1.76902     -1.88592         2.147010     -2.549317     -0.577624
O	      3.88358     -0.12075      2.00292         0.905067      0.059268      1.474924
O	      3.78074     -0.10442     -2.05303        -0.735288      2.677409     -0.972046
O	      1.94181      1.78074      1.75904        -0.377244      3.242978      2.412552
O	      5.89848      0.11521     -0.09814        -0.862138      0.039239      0.465367
