# total energy = -102.39537003 eV
 
CRYSTAL
PRIMVEC
2.034874 4.010777 2.011130 
2.041633 -4.007598 1.998065 
4.076764 -0.009816 -4.009169 
PRIMCOORD
16 1
Li	      1.97068     -0.01564     -1.87737        -0.929344      0.010814     -0.312382
Li	      3.81246      1.88229     -1.85746         0.162333      0.252538     -0.563164
Li	      2.02990     -1.92032     -0.05314        -0.610118     -0.345249      0.146761
Li	      3.98076     -0.00363      0.07346         0.305110     -0.020574      0.033229
Mn	      7.76028      0.00156     -0.02473         3.313060     -0.064563     -0.306127
Mn	      2.05054      1.90953     -0.04988        -0.735930      2.848715     -1.113942
Mn	      1.92100      0.01292      1.88464        -0.762152     -0.761361      2.179687
Mn	      3.82437     -1.89579     -1.83845        -0.653723     -2.671498     -0.755034
O	      3.89971     -1.85541      0.11521         0.023543     -1.269328      0.314593
O	      1.77820      0.10376      0.04297        -1.372957     -2.167173     -2.038955
O	      4.01794      1.84047      0.00966         0.370150      1.270523     -0.000920
O	      5.67183     -1.78769     -1.90582         1.828040     -2.228924     -0.524556
O	      3.92456     -0.12203      2.02406         0.748152      0.065104      1.320014
O	      3.82064     -0.10552     -2.07470        -0.707883      2.291290     -0.849851
O	      1.96231      1.79953      1.77761        -0.331785      2.770374      2.045145
O	      5.96073      0.11642     -0.09918        -0.646497      0.019312      0.425501
