# total energy = -104.58885783 eV
 
CRYSTAL
PRIMVEC
2.077489 4.094772 2.053248 
2.084390 -4.091527 2.039910 
4.162141 -0.010021 -4.093131 
PRIMCOORD
16 1
Li	      2.05408     -0.01630     -1.95682        -0.441733      0.004112     -0.134293
Li	      3.97382      1.96196     -1.93607         0.071436      0.113664     -0.258706
Li	      2.11581     -2.00160     -0.05539        -0.281800     -0.149496      0.069022
Li	      4.14924     -0.00379      0.07657         0.177992     -0.010683      0.037020
Mn	      8.08873      0.00163     -0.02577         1.751252     -0.015344     -0.182816
Mn	      2.13733      1.99035     -0.05199        -0.292703      1.282481     -0.390432
Mn	      2.00231      0.01346      1.96441        -0.366819     -0.232701      0.968925
Mn	      3.98623     -1.97603     -1.91626        -0.219971     -1.259391     -0.310793
O	      4.06475     -1.93393      0.12008        -0.018560     -0.632766      0.065081
O	      1.85346      0.10815      0.04478        -0.791891     -0.981972     -0.938771
O	      4.18799      1.91836      0.01007         0.099844      0.639675     -0.030433
O	      5.91188     -1.86335     -1.98648         0.802631     -1.069461     -0.303695
O	      4.09067     -0.12719      2.10973         0.283899      0.052964      0.704979
O	      3.98234     -0.10999     -2.16251        -0.463734      1.039643     -0.417665
O	      2.04535      1.87570      1.85284        -0.175681      1.237265      0.890456
O	      6.21301      0.12135     -0.10338        -0.134163     -0.017990      0.232119
