# total energy = -104.90971363 eV
 
CRYSTAL
PRIMVEC
2.088143 4.115771 2.063777 
2.095079 -4.112509 2.050371 
4.183486 -0.010073 -4.114122 
PRIMCOORD
16 1
Li	      2.07520     -0.01646     -1.97694        -0.339586      0.003330     -0.098031
Li	      4.01468      1.98213     -1.95598         0.053263      0.085377     -0.197432
Li	      2.13757     -2.02218     -0.05595        -0.216005     -0.112265      0.051994
Li	      4.19191     -0.00383      0.07736         0.145608     -0.007283      0.037918
Mn	      8.17190      0.00164     -0.02604         1.394827     -0.009049     -0.149492
Mn	      2.15931      2.01082     -0.05253        -0.215372      0.973897     -0.273459
Mn	      2.02290      0.01360      1.98461        -0.280784     -0.156510      0.732456
Mn	      4.02722     -1.99635     -1.93596        -0.152051     -0.967359     -0.229505
O	      4.10655     -1.95382      0.12132        -0.023046     -0.495397      0.036592
O	      1.87252      0.10926      0.04525        -0.646599     -0.748604     -0.712945
O	      4.23106      1.93809      0.01017         0.064914      0.499822     -0.031685
O	      5.97267     -1.88251     -2.00691         0.601320     -0.815394     -0.247814
O	      4.13273     -0.12850      2.13142         0.208054      0.045316      0.556253
O	      4.02329     -0.11112     -2.18474        -0.379871      0.792568     -0.323364
O	      2.06639      1.89499      1.87189        -0.137541      0.932945      0.664523
O	      6.27689      0.12260     -0.10444        -0.077130     -0.021394      0.183992
