# total energy = -105.31805102 eV
 
CRYSTAL
PRIMVEC
2.109450 4.157769 2.084836 
2.116457 -4.154473 2.071293 
4.226174 -0.010176 -4.156102 
PRIMCOORD
16 1
Li	      2.11777     -0.01680     -2.01749        -0.157625      0.002291     -0.035996
Li	      4.09703      2.02279     -1.99610         0.025101      0.032938     -0.088707
Li	      2.18142     -2.06366     -0.05711        -0.098746     -0.046219      0.025481
Li	      4.27789     -0.00390      0.07895         0.083839     -0.003015      0.029179
Mn	      8.33952      0.00168     -0.02657         0.696152     -0.002323     -0.077633
Mn	      2.20360      2.05206     -0.05361        -0.091023      0.434465     -0.104356
Mn	      2.06439      0.01388      2.02532        -0.131530     -0.053241      0.325805
Mn	      4.10983     -2.03730     -1.97567        -0.055493     -0.445169     -0.098714
O	      4.19079     -1.99389      0.12381        -0.012035     -0.243408      0.012313
O	      1.91093      0.11151      0.04617        -0.348335     -0.342709     -0.325559
O	      4.31784      1.97784      0.01038         0.025009      0.244174     -0.017832
O	      6.09519     -1.92113     -2.04807         0.256557     -0.364756     -0.125618
O	      4.21750     -0.13114      2.17514         0.083583      0.033655      0.265531
O	      4.10581     -0.11340     -2.22955        -0.196699      0.364054     -0.152922
O	      2.10877      1.93386      1.91029        -0.067715      0.407763      0.282154
O	      6.40565      0.12511     -0.10658        -0.011039     -0.018502      0.086873
