# total energy = -105.41613441 eV
 
CRYSTAL
PRIMVEC
2.120104 4.178768 2.095366 
2.127146 -4.175456 2.081754 
4.247519 -0.010227 -4.177093 
PRIMCOORD
16 1
Li	      2.13922     -0.01697     -2.03793        -0.075922      0.001576     -0.013271
Li	      4.13852      2.04327     -2.01632         0.013860      0.012709     -0.042496
Li	      2.20350     -2.08455     -0.05768        -0.045154     -0.018318      0.013266
Li	      4.32121     -0.00394      0.07974         0.053994     -0.001182      0.027460
Mn	      8.42398      0.00170     -0.02684         0.348788     -0.000774     -0.037847
Mn	      2.22591      2.07285     -0.05415        -0.043951      0.203680     -0.046493
Mn	      2.08529      0.01402      2.04583        -0.065496     -0.018568      0.151020
Mn	      4.15145     -2.05793     -1.99568        -0.024171     -0.210990     -0.047119
O	      4.23322     -2.01409      0.12506        -0.006279     -0.125232      0.014596
O	      1.93028      0.11264      0.04664        -0.184045     -0.169623     -0.160363
O	      4.36157      1.99787      0.01049         0.021684      0.122837     -0.004740
O	      6.15691     -1.94058     -2.06881         0.108508     -0.168295     -0.062669
O	      4.26021     -0.13246      2.19717         0.043361      0.023229      0.126835
O	      4.14739     -0.11455     -2.25213        -0.104766      0.182698     -0.075177
O	      2.13013      1.95344      1.92964        -0.036253      0.185758      0.119720
O	      6.47052      0.12638     -0.10766        -0.004156     -0.019506      0.037278
