# total energy = -105.42179161 eV
 
CRYSTAL
PRIMVEC
2.141411 4.220765 2.116425 
2.148525 -4.217420 2.102676 
4.290207 -0.010330 -4.219074 
PRIMCOORD
16 1
Li	      2.18243     -0.01731     -2.07909         0.071949      0.000801      0.028027
Li	      4.22213      2.08455     -2.05705        -0.006136     -0.036374      0.039899
Li	      2.24802     -2.12667     -0.05885         0.043588      0.029766     -0.006968
Li	      4.40851     -0.00402      0.08135        -0.002625      0.002741      0.018103
Mn	      4.30394      0.01206      4.19168        -0.352696     -0.004069      0.039894
Mn	      2.27088      2.11472     -0.05524         0.027287     -0.195049      0.027317
Mn	      2.12742      0.01431      2.08716         0.050425      0.019418     -0.143349
Mn	      4.23531     -2.09950     -2.03600         0.012907      0.200794      0.038639
O	      4.31875     -2.05478      0.12758         0.015240      0.095265      0.038968
O	      1.96927      0.11491      0.04758         0.179245      0.124960      0.123562
O	      4.44968      2.03823      0.01070         0.026377     -0.098347      0.018522
O	      6.28129     -1.97978     -2.11061        -0.137178      0.166655      0.053929
O	      4.34627     -0.13514      2.24155        -0.012541      0.007137     -0.139321
O	      4.23118     -0.11686     -2.29763         0.089047     -0.126731      0.066979
O	      2.17316      1.99290      1.96862         0.032433     -0.178673     -0.150526
O	      6.60123      0.12893     -0.10984        -0.037320     -0.008293     -0.053675
