# total energy = -105.33751207 eV
 
CRYSTAL
PRIMVEC
2.152065 4.241764 2.126954 
2.159214 -4.238402 2.113137 
4.311551 -0.010381 -4.240064 
PRIMCOORD
16 1
Li	      2.20420     -0.01749     -2.09983         0.137071     -0.003076      0.047694
Li	      4.26424      2.10534     -2.07757        -0.010013     -0.059357      0.076192
Li	      2.27044     -2.14788     -0.05944         0.084462      0.048959     -0.013812
Li	      4.45248     -0.00406      0.08217        -0.029686      0.003685      0.013084
Mn	      0.05704      0.00877     -0.02769        -0.714226     -0.008952      0.080576
Mn	      2.29353      2.13581     -0.05579         0.051561     -0.364652      0.048034
Mn	      2.14864      0.01445      2.10798         0.098710      0.027858     -0.265461
Mn	      4.27756     -2.12045     -2.05630         0.021257      0.385614      0.073046
O	      4.36183     -2.07527      0.12885         0.025182      0.195905      0.055509
O	      1.98892      0.11606      0.04806         0.384563      0.246621      0.240419
O	      4.49406      2.05856      0.01081         0.035466     -0.201137      0.031194
O	      6.34394     -1.99953     -2.13166        -0.240939      0.308886      0.114961
O	      4.38962     -0.13649      2.26391        -0.030730     -0.001581     -0.270218
O	      4.27338     -0.11803     -2.32055         0.187960     -0.253202      0.126901
O	      2.19484      2.01278      1.98826         0.068388     -0.326162     -0.265957
O	      6.66708      0.13022     -0.11093        -0.069025      0.000590     -0.092161
