# total energy = -105.20040205 eV
 
CRYSTAL
PRIMVEC
2.162719 4.262763 2.137484 
2.169903 -4.259384 2.123598 
4.332896 -0.010432 -4.261054 
PRIMCOORD
16 1
Li	      2.22608     -0.01766     -2.12068         0.198298     -0.004778      0.064378
Li	      4.30657      2.12624     -2.09819        -0.013458     -0.078088      0.107432
Li	      2.29297     -2.16920     -0.06003         0.119211      0.067243     -0.019005
Li	      4.49668     -0.00410      0.08298        -0.054405      0.005684      0.008082
Mn	      0.10051      0.00882     -0.02796        -1.092492     -0.013875      0.119797
Mn	      2.31630      2.15701     -0.05635         0.071492     -0.517485      0.054120
Mn	      2.16997      0.01459      2.12890         0.140827      0.031736     -0.373701
Mn	      4.32002     -2.14149     -2.07671         0.020708      0.557828      0.104406
O	      4.40512     -2.09587      0.13014         0.040547      0.293443      0.072976
O	      2.00866      0.11721      0.04853         0.606013      0.354767      0.343459
O	      4.53867      2.07899      0.01091         0.046276     -0.296839      0.046425
O	      6.40691     -2.01937     -2.15282        -0.322630      0.426626      0.169306
O	      4.43320     -0.13784      2.28639        -0.038866     -0.011661     -0.397449
O	      4.31580     -0.11920     -2.34358         0.289745     -0.369601      0.186191
O	      2.21662      2.03276      2.00799         0.102814     -0.453409     -0.359046
O	      6.73325      0.13151     -0.11203        -0.114079      0.008410     -0.127372
