# total energy = -105.01381467 eV
 
CRYSTAL
PRIMVEC
2.173373 4.283762 2.148013 
2.180592 -4.280366 2.134059 
4.354240 -0.010484 -4.282045 
PRIMCOORD
16 1
Li	      2.24806     -0.01784     -2.14162         0.254915     -0.004881      0.079744
Li	      4.34910      2.14724     -2.11891        -0.018635     -0.097891      0.139812
Li	      2.31562     -2.19062     -0.06062         0.151304      0.083678     -0.022811
Li	      4.54109     -0.00414      0.08380        -0.081136      0.008140      0.001324
Mn	      0.14440      0.00887     -0.02824        -1.487907     -0.023906      0.157181
Mn	      2.33917      2.17832     -0.05691         0.084914     -0.654368      0.054130
Mn	      2.19140      0.01474      2.14993         0.176489      0.030688     -0.467106
Mn	      4.36268     -2.16264     -2.09722         0.019187      0.712886      0.127675
O	      4.44863     -2.11657      0.13142         0.053592      0.384474      0.095350
O	      2.02850      0.11837      0.04901         0.853391      0.451002      0.433777
O	      4.58350      2.09953      0.01102         0.060719     -0.388131      0.063263
O	      6.47019     -2.03932     -2.17408        -0.390016      0.522589      0.221374
O	      4.47698     -0.13920      2.30897        -0.036963     -0.022514     -0.514795
O	      4.35843     -0.12038     -2.36673         0.394740     -0.459490      0.232147
O	      2.23852      2.05284      2.02782         0.136523     -0.559714     -0.444541
O	      6.79975      0.13281     -0.11314        -0.171118      0.017438     -0.156523
