# total energy = -104.50265080 eV
 
CRYSTAL
PRIMVEC
2.194680 4.325759 2.169072 
2.201971 -4.322331 2.154982 
4.396929 -0.010587 -4.324026 
PRIMCOORD
16 1
Li	      2.29236     -0.01819     -2.18382         0.354423     -0.008394      0.102211
Li	      4.43479      2.18955     -2.16066        -0.016565     -0.137616      0.197452
Li	      2.36125     -2.23379     -0.06181         0.211201      0.107802     -0.026642
Li	      4.63056     -0.00422      0.08545        -0.125032      0.010368     -0.014153
Mn	      0.23346      0.00897     -0.02880        -2.352857     -0.050072      0.230024
Mn	      2.38527      2.22124     -0.05802         0.098662     -0.878675      0.031264
Mn	      2.23458      0.01503      2.19229         0.235877      0.020882     -0.617013
Mn	      4.44864     -2.20526     -2.13854         0.002331      0.990395      0.167196
O	      4.53628     -2.15827      0.13401         0.079634      0.550227      0.140122
O	      2.06847      0.12070      0.04998         1.429114      0.609985      0.577113
O	      4.67381      2.14089      0.01124         0.091906     -0.561493      0.099954
O	      2.20075     -2.06892      2.10711        -0.497457      0.655916      0.329012
O	      4.56519     -0.14195      2.35446        -0.018871     -0.035807     -0.742303
O	      4.44430     -0.12275     -2.41336         0.603661     -0.615675      0.319122
O	      2.28262      2.09329      2.06778         0.210612     -0.701617     -0.582269
O	      6.93373      0.13543     -0.11537        -0.306640      0.043775     -0.211092
