# total energy = -104.18346695 eV
 
CRYSTAL
PRIMVEC
2.205334 4.346758 2.179602 
2.212660 -4.343313 2.165443 
4.418273 -0.010638 -4.345016 
PRIMCOORD
16 1
Li	      2.31467     -0.01837     -2.20508         0.399804     -0.007446      0.110928
Li	      4.47795      2.21086     -2.18169        -0.014484     -0.157375      0.223464
Li	      2.38423     -2.25553     -0.06242         0.237608      0.116676     -0.025730
Li	      4.67563     -0.00426      0.08628        -0.147279      0.011479     -0.019871
Mn	      0.27862      0.00903     -0.02907        -2.837711     -0.066516      0.257515
Mn	      2.40848      2.24286     -0.05859         0.098789     -0.972065      0.010212
Mn	      2.25633      0.01517      2.21362         0.255822      0.010293     -0.670400
Mn	      4.49194     -2.22672     -2.15936        -0.008536      1.107936      0.184580
O	      4.58043     -2.17928      0.13531         0.099607      0.629022      0.164547
O	      2.08860      0.12187      0.05046         1.774656      0.675954      0.631810
O	      4.71929      2.16174      0.01135         0.109287     -0.639871      0.116274
O	      2.24362     -2.08910      2.10652        -0.531474      0.691006      0.372844
O	      4.60962     -0.14333      2.37738        -0.005147     -0.041553     -0.846447
O	      4.48756     -0.12394     -2.43685         0.705339     -0.669983      0.358046
O	      2.30484      2.11366      2.08790         0.249479     -0.744918     -0.637219
O	      7.00121      0.13675     -0.11649        -0.385760      0.057362     -0.230553
