# total energy = -103.82423503 eV
 
CRYSTAL
PRIMVEC
2.215988 4.367757 2.190131 
2.223349 -4.364295 2.175904 
4.439617 -0.010689 -4.366007 
PRIMCOORD
16 1
Li	      2.33709     -0.01854     -2.22643         0.440994     -0.008882      0.119754
Li	      4.52133      2.23227     -2.20282        -0.010621     -0.173550      0.245668
Li	      2.40732     -2.27737     -0.06302         0.261999      0.123278     -0.025262
Li	      4.72092     -0.00430      0.08712        -0.167372      0.013560     -0.026428
Mn	      0.32422      0.00908     -0.02936        -3.361513     -0.089063      0.291568
Mn	      2.43181      2.26458     -0.05916         0.096558     -1.053402     -0.015852
Mn	      2.27818      0.01532      2.23506         0.268502      0.000229     -0.713870
Mn	      4.53545     -2.24828     -2.18027        -0.020559      1.211181      0.199907
O	      4.62479     -2.20038      0.13662         0.108056      0.697786      0.188125
O	      2.10882      0.12306      0.05095         2.170147      0.730616      0.676652
O	      4.76500      2.18267      0.01146         0.127760     -0.708008      0.133127
O	      2.28680     -2.10939      2.10583        -0.549489      0.716023      0.410116
O	      4.65427     -0.14472      2.40040         0.012280     -0.041305     -0.942505
O	      4.53102     -0.12514     -2.46045         0.804480     -0.717049      0.387398
O	      2.32716      2.13413      2.10812         0.292193     -0.775432     -0.682195
O	      7.06902      0.13807     -0.11762        -0.473415      0.074017     -0.246204
