# total energy = -103.42692812 eV
 
CRYSTAL
PRIMVEC
2.226642 4.388756 2.200660 
2.234038 -4.385277 2.186365 
4.460962 -0.010741 -4.386997 
PRIMCOORD
16 1
Li	      2.35961     -0.01872     -2.24789         0.479278     -0.008486      0.126110
Li	      4.56490      2.25378     -2.22405        -0.003321     -0.191449      0.266916
Li	      2.43053     -2.29933     -0.06363         0.284512      0.130163     -0.022105
Li	      4.76642     -0.00434      0.08796        -0.183558      0.014855     -0.033594
Mn	      0.37023      0.00913     -0.02964        -3.940921     -0.114402      0.311356
Mn	      2.45524      2.28641     -0.05973         0.091686     -1.120583     -0.046504
Mn	      2.30014      0.01547      2.25660         0.279009     -0.008017     -0.746567
Mn	      4.57916     -2.26995     -2.20129        -0.030430      1.307467      0.211645
O	      4.66937     -2.22159      0.13794         0.125066      0.765420      0.204554
O	      2.12915      0.12424      0.05144         2.613623      0.781124      0.716650
O	      4.81093      2.20370      0.01157         0.133993     -0.776394      0.155294
O	      2.33028     -2.12977      2.10504        -0.556007      0.717184      0.448250
O	      4.69913     -0.14611      2.42354         0.037607     -0.042526     -1.032699
O	      4.57469     -0.12635     -2.48416         0.908610     -0.752219      0.418833
O	      2.34959      2.15470      2.12844         0.334587     -0.793994     -0.721197
O	      7.13715      0.13940     -0.11876        -0.573735      0.091858     -0.256940
