# total energy = -102.99213517 eV
 
CRYSTAL
PRIMVEC
2.237296 4.409755 2.211190 
2.244727 -4.406260 2.196826 
4.482306 -0.010792 -4.407987 
PRIMCOORD
16 1
Li	      2.38224     -0.01890     -2.26945         0.512841     -0.007793      0.132259
Li	      4.60869      2.27540     -2.24539         0.001999     -0.209896      0.286327
Li	      2.45384     -2.32138     -0.06424         0.301207      0.134581     -0.017341
Li	      4.81214     -0.00439      0.08880        -0.198843      0.016343     -0.042729
Mn	      0.41668      0.00918     -0.02992        -4.580201     -0.145722      0.328458
Mn	      2.47879      2.30833     -0.06030         0.081727     -1.178098     -0.080539
Mn	      2.32220      0.01561      2.27825         0.284076     -0.019862     -0.767276
Mn	      4.62308     -2.29173     -2.22240        -0.041369      1.389881      0.218591
O	      4.71416     -2.24290      0.13926         0.145147      0.823004      0.215141
O	      2.14958      0.12543      0.05194         3.123274      0.829492      0.745538
O	      4.85708      2.22485      0.01168         0.140426     -0.837269      0.179010
O	      2.37408     -2.15025      2.10414        -0.555445      0.705278      0.478513
O	      4.74420     -0.14752      2.44678         0.063833     -0.044757     -1.113419
O	      4.61857     -0.12756     -2.50799         1.015280     -0.779051      0.443652
O	      2.37213      2.17537      2.14886         0.380500     -0.792920     -0.749417
O	      7.20562      0.14074     -0.11990        -0.674452      0.116789     -0.256770
