# total energy = -100.83720894 eV
 
CRYSTAL
PRIMVEC
0.000077 4.452436 0.000031 
3.863388 -0.000029 3.863297 
3.863362 -0.000020 -3.863294 
PRIMCOORD
16 1
Li	      3.71828      0.00263      0.04733         0.030265     -0.179308     -0.790894
Li	      5.45682      2.11533      0.04742         0.810657      0.117308      0.045200
Li	      3.71562      2.11594      1.79074         0.254931      0.192618      0.684154
Li	      5.46070      0.00124      1.78892         1.125215     -0.112086      0.205684
Mn	      3.65206      0.00166      3.65080         0.454231     -0.598805      6.235481
Mn	      1.85513      2.11661     -0.01970        -2.208027      0.917522      1.254939
Mn	      1.85477      0.00159      1.85344        -5.478679     -0.884135      2.127410
Mn	      3.65231      2.11662     -1.81706         3.718544      0.678971     -4.690241
O	      1.76499      0.00171      0.07013        -0.443751     -0.967574     -2.870403
O	      3.60105      2.11599     -0.07168         4.105714      0.337083      3.185548
O	      3.60065      0.00213      1.90580         3.454660     -0.258187     -2.117313
O	      1.90642      2.11675     -1.76490        -3.541039      0.267267     -4.581843
O	      3.74137      0.00171     -1.90739         0.159223     -0.805971     -1.838656
O	      1.76561      2.11675      1.76302         0.385240      0.853240      4.146622
O	      5.57652      0.00241     -0.07087         1.398688     -0.219303     -0.210309
O	      0.07172      2.11678      0.07034        -4.225871      0.661361     -0.785378
