# total energy = -101.81659803 eV
 
CRYSTAL
PRIMVEC
0.000077 4.475870 0.000031 
3.883722 -0.000029 3.883630 
3.883695 -0.000020 -3.883627 
PRIMCOORD
16 1
Li	      3.75752      0.00266      0.04783         0.026575     -0.144847     -0.703619
Li	      5.51441      2.13765      0.04793         0.693446      0.095309      0.040246
Li	      3.75483      2.13827      1.80964         0.209377      0.153912      0.584067
Li	      5.51833      0.00125      1.80780         0.984903     -0.091371      0.173267
Mn	      3.69060      0.00167      3.68933         0.415024     -0.509163      5.508522
Mn	      1.87471      2.13894     -0.01991        -1.912118      0.775756      1.091682
Mn	      1.87435      0.00161      1.87300        -4.795799     -0.734697      1.763127
Mn	      3.69086      2.13896     -1.83624         3.182400      0.574052     -4.026466
O	      1.78362      0.00173      0.07087        -0.421979     -0.820812     -2.469524
O	      3.63906      2.13832     -0.07243         3.560085      0.278868      2.741626
O	      3.63865      0.00215      1.92592         2.980981     -0.219222     -1.742983
O	      1.92654      2.13909     -1.78353        -3.044495      0.225744     -3.964543
O	      3.78086      0.00172     -1.92752         0.146298     -0.682222     -1.694009
O	      1.78425      2.13909      1.78163         0.363004      0.715882      3.589012
O	      5.63538      0.00244     -0.07161         1.285948     -0.183350     -0.184430
O	      0.07248      2.13912      0.07109        -3.673650      0.566162     -0.705976
