# total energy = -103.37653258 eV
 
CRYSTAL
PRIMVEC
0.000078 4.522737 0.000031 
3.924389 -0.000029 3.924296 
3.924362 -0.000020 -3.924293 
PRIMCOORD
16 1
Li	      3.83663      0.00272      0.04884         0.017729     -0.088264     -0.527626
Li	      5.63050      2.18266      0.04893         0.490257      0.058575      0.025445
Li	      3.83388      2.18328      1.84774         0.137022      0.092896      0.410778
Li	      5.63450      0.00127      1.84586         0.708860     -0.057638      0.117002
Mn	      3.76830      0.00171      3.76699         0.299127     -0.357566      4.136755
Mn	      1.91417      2.18397     -0.02033        -1.391149      0.512866      0.793840
Mn	      1.91381      0.00165      1.91243        -3.506571     -0.484004      1.211688
Mn	      3.76856      2.18399     -1.87489         2.239299      0.391991     -2.856839
O	      1.82117      0.00177      0.07236        -0.300862     -0.549346     -1.755939
O	      3.71567      2.18334     -0.07396         2.542142      0.184471      1.946784
O	      3.71525      0.00220      1.96646         2.129180     -0.152277     -1.196007
O	      1.96710      2.18412     -1.82108        -2.156663      0.155488     -2.815394
O	      3.86045      0.00176     -1.96809         0.126740     -0.465829     -1.355446
O	      1.82181      2.18412      1.81913         0.305639      0.482030      2.552406
O	      5.75401      0.00249     -0.07312         0.990189     -0.129064     -0.148105
O	      0.07400      2.18415      0.07258        -2.630940      0.405671     -0.539342
