# total energy = -103.97472524 eV
 
CRYSTAL
PRIMVEC
0.000079 4.546171 0.000031 
3.944723 -0.000029 3.944629 
3.944696 -0.000020 -3.944626 
PRIMCOORD
16 1
Li	      3.87649      0.00275      0.04934         0.016532     -0.066710     -0.445313
Li	      5.68900      2.20533      0.04944         0.400496      0.043479      0.021911
Li	      3.87371      2.20597      1.86694         0.105171      0.070388      0.335541
Li	      5.69304      0.00129      1.86504         0.589665     -0.043524      0.093197
Mn	      3.80745      0.00173      3.80613         0.244203     -0.290884      3.491817
Mn	      1.93406      2.20666     -0.02054        -1.153958      0.402937      0.657173
Mn	      1.93369      0.00166      1.93230        -2.912601     -0.381844      0.980310
Mn	      3.80771      2.20669     -1.89437         1.825531      0.314244     -2.337269
O	      1.84009      0.00178      0.07311        -0.244334     -0.435406     -1.438929
O	      3.75427      2.20602     -0.07473         2.087461      0.142784      1.592642
O	      3.75385      0.00222      1.98689         1.742922     -0.122367     -0.969000
O	      1.98753      2.20681     -1.84000        -1.765806      0.124218     -2.308604
O	      3.90056      0.00178     -1.98854         0.111690     -0.373957     -1.181134
O	      1.84074      2.20681      1.83803         0.271943      0.388198      2.094406
O	      5.81379      0.00251     -0.07388         0.845770     -0.104244     -0.128119
O	      0.07477      2.20684      0.07334        -2.164684      0.332689     -0.458630
