# total energy = -104.46206153 eV
 
CRYSTAL
PRIMVEC
0.000079 4.569605 0.000032 
3.965056 -0.000029 3.964962 
3.965029 -0.000020 -3.964959 
PRIMCOORD
16 1
Li	      3.91655      0.00278      0.04985         0.014319     -0.048099     -0.367448
Li	      5.74780      2.22813      0.04995         0.318125      0.031579      0.015496
Li	      3.91375      2.22877      1.88623         0.080351      0.049402      0.268482
Li	      5.75189      0.00130      1.88432         0.474272     -0.032262      0.070270
Mn	      3.84681      0.00174      3.84547         0.192275     -0.231328      2.868842
Mn	      1.95405      2.22947     -0.02076        -0.927682      0.306183      0.527812
Mn	      1.95367      0.00168      1.95227        -2.351743     -0.291811      0.771272
Mn	      3.84707      2.22949     -1.91395         1.445690      0.245194     -1.857285
O	      1.85911      0.00180      0.07387        -0.187862     -0.334055     -1.147767
O	      3.79308      2.22882     -0.07550         1.665831      0.111576      1.271605
O	      3.79265      0.00224      2.00743         1.388177     -0.095581     -0.764106
O	      2.00807      2.22963     -1.85902        -1.402659      0.100859     -1.837939
O	      3.94087      0.00180     -2.00910         0.095648     -0.291788     -0.999523
O	      1.85976      2.22962      1.85703         0.231499      0.301015      1.668263
O	      5.87388      0.00254     -0.07465         0.698437     -0.082821     -0.106425
O	      0.07554      2.22965      0.07410        -1.734677      0.261938     -0.381548
