# total energy = -91.23225314 eV
 
CRYSTAL
PRIMVEC
4.118911 0.000570 -0.000464 
-2.058564 4.239750 -6.352795 
-2.059123 4.134869 2.047470 
PRIMCOORD
16 1
Li	     -0.00096      4.26517     -0.22161         0.005190      0.003568     -0.008228
Li	      2.05883      4.19095     -2.25140         0.002690      0.005626     -0.005390
Li	      0.00251      6.20643     -2.12625        -0.002001      0.005016     -0.015510
Li	      0.00207      4.09097     -4.12145        -0.001731     -0.022380     -0.009818
Mn	     -2.05776      4.25709     -6.30552        -0.002556     -0.033608      0.037851
Mn	      2.05967      2.16114     -0.05212         0.002670     -0.009568      0.025784
Ni	      0.00027      2.14299     -2.24342        -0.000843     -0.095696      0.036704
Ni	     -2.05719      6.24443     -4.13087        -0.004378      0.055595     -0.013770
O	     -2.05832      6.19238     -2.16020         0.005373      0.016434      0.026426
O	      2.05978      4.10727      0.11858         0.003436     -0.018256      0.016814
O	      0.00193      6.46636     -4.40803         0.003360      0.021418      0.006792
O	      2.06024      0.12164      0.02465        -0.002147      0.106861     -0.012541
O	     -2.05720      4.27818     -4.43347        -0.007018     -0.157206     -0.059758
O	      2.05973      2.12039     -1.94800        -0.003389     -0.001671     -0.015050
O	      0.00029      4.06400     -2.17720         0.000734      0.133791      0.007834
O	      0.00051      1.99648     -0.00410         0.000610     -0.009923     -0.018140
