# total energy = -104.84619562 eV
 
CRYSTAL
PRIMVEC
0.000079 4.593039 0.000032 
3.985390 -0.000030 3.985295 
3.985363 -0.000020 -3.985293 
PRIMCOORD
16 1
Li	      3.95683      0.00280      0.05036         0.015450     -0.031041     -0.292580
Li	      5.80690      2.25104      0.05047         0.242220      0.023003      0.011562
Li	      3.95399      2.25169      1.90562         0.057698      0.034994      0.202172
Li	      5.81103      0.00132      1.90369         0.363765     -0.022801      0.051083
Mn	      3.88636      0.00176      3.88501         0.144719     -0.176243      2.264978
Mn	      1.97414      2.25240     -0.02097        -0.711507      0.223449      0.405595
Mn	      1.97376      0.00170      1.97235        -1.820106     -0.213550      0.586777
Mn	      3.88664      2.25242     -1.93363         1.096205      0.182945     -1.414642
O	      1.87822      0.00182      0.07463        -0.139198     -0.245979     -0.880370
O	      3.83208      2.25174     -0.07627         1.277325      0.080861      0.973233
O	      3.83165      0.00227      2.02807         1.060336     -0.071309     -0.580326
O	      2.02872      2.25255     -1.87813        -1.073149      0.073037     -1.406375
O	      3.98140      0.00182     -2.02976         0.078902     -0.220103     -0.811518
O	      1.87889      2.25255      1.87613         0.193076      0.224810      1.281470
O	      5.93429      0.00256     -0.07541         0.549121     -0.064058     -0.085085
O	      0.07632      2.25258      0.07486        -1.334856      0.201986     -0.305976
