# total energy = -105.13398427 eV
 
CRYSTAL
PRIMVEC
0.000080 4.616473 0.000032 
4.005724 -0.000030 4.005629 
4.005696 -0.000020 -4.005626 
PRIMCOORD
16 1
Li	      3.99731      0.00283      0.05088         0.007582     -0.020029     -0.213541
Li	      5.86631      2.27407      0.05098         0.177368      0.015984      0.007148
Li	      3.99444      2.27472      1.92512         0.040167      0.020699      0.144534
Li	      5.87048      0.00133      1.92317         0.264467     -0.014578      0.033960
Mn	      3.92612      0.00178      3.92476         0.096713     -0.125137      1.673758
Mn	      1.99434      2.27544     -0.02118        -0.512874      0.150508      0.290388
Mn	      1.99396      0.00172      1.99252        -1.317347     -0.145044      0.420961
Mn	      3.92639      2.27546     -1.95341         0.778349      0.129853     -1.011268
O	      1.89744      0.00184      0.07539        -0.092816     -0.169757     -0.634064
O	      3.87128      2.27478     -0.07706         0.912582      0.054827      0.699738
O	      3.87084      0.00229      2.04882         0.765244     -0.052065     -0.406646
O	      2.04948      2.27560     -1.89735        -0.771753      0.050974     -1.011837
O	      4.02213      0.00184     -2.05052         0.054396     -0.154155     -0.615808
O	      1.89811      2.27559      1.89532         0.151074      0.158585      0.922794
O	      5.99499      0.00259     -0.07618         0.411237     -0.044553     -0.066804
O	      0.07710      2.27562      0.07562        -0.964390      0.143887     -0.233312
