# total energy = -105.33263068 eV
 
CRYSTAL
PRIMVEC
0.000080 4.639907 0.000032 
4.026057 -0.000030 4.025962 
4.026030 -0.000021 -4.025959 
PRIMCOORD
16 1
Li	      4.03799      0.00286      0.05140         0.004098     -0.010934     -0.141592
Li	      5.92602      2.29721      0.05150         0.117531      0.008115      0.004714
Li	      4.03510      2.29787      1.94471         0.023915      0.012321      0.091799
Li	      5.93023      0.00134      1.94274         0.170706     -0.008586      0.022967
Mn	      3.96608      0.00180      3.96470         0.053611     -0.079692      1.099135
Mn	      2.01464      2.29860     -0.02140        -0.323913      0.088040      0.177110
Mn	      2.01425      0.00173      2.01280        -0.846448     -0.088166      0.270659
Mn	      3.96636      2.29862     -1.97330         0.485624      0.080229     -0.636867
O	      1.91675      0.00186      0.07616        -0.051908     -0.102229     -0.404962
O	      3.91068      2.29793     -0.07784         0.588219      0.034567      0.448226
O	      3.91024      0.00231      2.06967         0.489475     -0.031118     -0.255740
O	      2.07034      2.29876     -1.91666        -0.493781      0.031760     -0.647576
O	      4.06306      0.00186     -2.07139         0.033492     -0.094968     -0.419383
O	      1.91743      2.29875      1.91461         0.108000      0.099203      0.597649
O	      6.05601      0.00262     -0.07696         0.264972     -0.031029     -0.046126
O	      0.07788      2.29879      0.07639        -0.623593      0.092487     -0.160013
