# total energy = -105.45003143 eV
 
CRYSTAL
PRIMVEC
0.000081 4.710208 0.000033 
4.087058 -0.000030 4.086961 
4.087030 -0.000021 -4.086958 
PRIMCOORD
16 1
Li	      4.16128      0.00295      0.05297        -0.006566      0.001943      0.059830
Li	      6.10696      2.36735      0.05307        -0.039419     -0.001282     -0.005238
Li	      4.15830      2.36803      2.00410        -0.007280     -0.000603     -0.042649
Li	      6.11130      0.00138      2.00206        -0.075860      0.002823     -0.007753
Mn	      4.08718      0.00185      4.08576        -0.056247      0.037343     -0.577993
Mn	      2.07615      2.36878     -0.02205         0.177826     -0.029529     -0.109235
Mn	      2.07576      0.00178      2.07426         0.415546      0.034393     -0.080855
Mn	      4.08746      2.36880     -2.03354        -0.242349     -0.032273      0.309047
O	      1.97527      0.00191      0.07848         0.060975      0.037806      0.151005
O	      4.03009      2.36809     -0.08022        -0.246730     -0.014044     -0.175901
O	      4.02963      0.00238      2.13287        -0.205860      0.011473      0.076762
O	      2.13355      2.36895     -1.97518         0.199859     -0.015129      0.265487
O	      4.18712      0.00191     -2.13463        -0.046101      0.039240      0.287722
O	      1.97597      2.36894      1.97307        -0.026586     -0.041329     -0.220328
O	      6.24092      0.00270     -0.07931        -0.151813      0.012479      0.026414
O	      0.08026      2.36897      0.07872         0.250604     -0.043313      0.043683
