# total energy = -104.95954904 eV
 
CRYSTAL
PRIMVEC
0.000083 4.780510 0.000033 
4.148059 -0.000031 4.147961 
4.148031 -0.000021 -4.147958 
PRIMCOORD
16 1
Li	      4.28643      0.00304      0.05456        -0.019804     -0.006916      0.245651
Li	      6.29061      2.43855      0.05467        -0.161221     -0.001307     -0.015799
Li	      4.28335      2.43925      2.06437        -0.026807      0.007954     -0.136178
Li	      2.14703      0.00146     -2.08570        -0.275701     -0.000470     -0.022355
Mn	      0.06203      0.00194      0.06067        -0.143201      0.120525     -2.262338
Mn	      2.13859      2.44002     -0.02272         0.577369     -0.082724     -0.335776
Mn	      2.13818      0.00184      2.13664         1.463726      0.091122     -0.320236
Mn	      4.21038      2.44004     -2.09470        -0.781574     -0.119370      1.022104
O	      2.03468      0.00197      0.08085         0.160918      0.103151      0.552828
O	      4.15129      2.43931     -0.08263        -0.863068     -0.030530     -0.641982
O	      4.15082      0.00245      2.19701        -0.717745      0.035857      0.287076
O	      2.19771      2.44019     -2.03458         0.715625     -0.032271      0.930522
O	      4.31304      0.00197     -2.19884        -0.144833      0.127138      1.191065
O	      2.03540      2.44018      2.03241        -0.160656     -0.119135     -0.823194
O	      6.42860      0.00278     -0.08169        -0.553120      0.046522      0.107595
O	      0.08268      2.44022      0.08109         0.930094     -0.139547      0.221016
