# total energy = -104.68132959 eV
 
CRYSTAL
PRIMVEC
0.000083 4.803944 0.000033 
4.168393 -0.000031 4.168294 
4.168364 -0.000021 -4.168291 
PRIMCOORD
16 1
Li	      4.32855      0.00307      0.05510        -0.024148     -0.014288      0.304011
Li	      6.35243      2.46251      0.05521        -0.200273     -0.000380     -0.021292
Li	      4.32545      2.46322      2.08465        -0.029215      0.015382     -0.161570
Li	      2.18856      0.00147     -2.08576        -0.332237     -0.004172     -0.025987
Mn	      0.08308      0.00196      0.08170        -0.162941      0.143224     -2.842595
Mn	      2.15960      2.46400     -0.02294         0.689919     -0.088147     -0.396372
Mn	      2.15919      0.00186      2.15764         1.773647      0.099794     -0.377968
Mn	      4.25176      2.46402     -2.11529        -0.921939     -0.143637      1.214575
O	      2.05468      0.00199      0.08164         0.187252      0.112170      0.657207
O	      4.19208      2.46328     -0.08344        -1.025030     -0.028891     -0.767436
O	      4.19161      0.00248      2.21860        -0.854216      0.038756      0.332062
O	      2.21931      2.46417     -2.05458         0.849623     -0.036045      1.106334
O	      4.35543      0.00199     -2.22044        -0.185294      0.148591      1.551489
O	      2.05540      2.46416      2.05238        -0.207203     -0.137029     -0.985943
O	      6.49178      0.00280     -0.08250        -0.681900      0.057546      0.138620
O	      0.08349      2.46420      0.08189         1.123955     -0.162875      0.274863
