# total energy = -104.35242092 eV
 
CRYSTAL
PRIMVEC
0.000083 4.827378 0.000033 
4.188726 -0.000031 4.188627 
4.188698 -0.000021 -4.188624 
PRIMCOORD
16 1
Li	      4.37089      0.00310      0.05563        -0.032497     -0.022433      0.357352
Li	      6.41456      2.48660      0.05574        -0.233301      0.003457     -0.026984
Li	      4.36775      2.48731      2.10504        -0.038703      0.022992     -0.184015
Li	      2.23040      0.00149     -2.08573        -0.385006     -0.007509     -0.026823
Mn	      0.10432      0.00198      0.10293        -0.186147      0.165383     -3.445501
Mn	      2.18072      2.48809     -0.02317         0.787995     -0.088048     -0.448678
Mn	      2.18031      0.00188      2.17874         2.058670      0.103779     -0.428124
Mn	      4.29334      2.48812     -2.13598        -1.051077     -0.168738      1.387113
O	      2.07477      0.00201      0.08244         0.210593      0.116909      0.743501
O	      4.23308      2.48737     -0.08426        -1.167647     -0.028840     -0.882841
O	      4.23260      0.00250      2.24030        -0.970105      0.041622      0.370288
O	      2.24102      2.48827     -2.07467         0.973278     -0.039793      1.257367
O	      4.39803      0.00201     -2.24216        -0.226761      0.168175      1.945340
O	      2.07550      2.48827      2.07245        -0.247466     -0.150091     -1.120673
O	      6.55527      0.00283     -0.08331        -0.795471      0.067781      0.169503
O	      0.08431      2.48830      0.08269         1.303644     -0.184646      0.333175
