# total energy = -103.97577181 eV
 
CRYSTAL
PRIMVEC
0.000084 4.850812 0.000034 
4.209060 -0.000031 4.208960 
4.209031 -0.000021 -4.208957 
PRIMCOORD
16 1
Li	      4.41342      0.00313      0.05618        -0.037690     -0.031496      0.409253
Li	      6.47699      2.51080      0.05629        -0.270228      0.007656     -0.033208
Li	      4.41026      2.51152      2.12553        -0.041298      0.034599     -0.199708
Li	      2.27254      0.00150     -2.08559        -0.430450     -0.011704     -0.029367
Mn	      0.12577      0.00200      0.12437        -0.206980      0.186588     -4.074490
Mn	      2.20195      2.51231     -0.02339         0.875903     -0.083143     -0.493960
Mn	      2.20153      0.00190      2.19994         2.324297      0.103931     -0.470461
Mn	      4.33513      2.51233     -2.15676        -1.162462     -0.190529      1.540185
O	      2.09496      0.00203      0.08324         0.238602      0.114377      0.818101
O	      4.27428      2.51158     -0.08508        -1.289527     -0.025322     -0.982643
O	      4.27380      0.00253      2.26210        -1.073492      0.044563      0.396856
O	      2.26282      2.51249     -2.09486         1.081594     -0.040047      1.390636
O	      4.44083      0.00203     -2.26398        -0.270543      0.183024      2.383569
O	      2.09570      2.51248      2.09262        -0.288487     -0.162370     -1.240928
O	      6.61907      0.00286     -0.08412        -0.916552      0.077572      0.203215
O	      0.08513      2.51251      0.08350         1.467312     -0.207700      0.382951
