# total energy = -103.55432713 eV
 
CRYSTAL
PRIMVEC
0.000084 4.874245 0.000034 
4.229393 -0.000031 4.229293 
4.229365 -0.000022 -4.229290 
PRIMCOORD
16 1
Li	      4.45617      0.00316      0.05672        -0.043539     -0.042760      0.458984
Li	      6.53972      2.53511      0.05684        -0.306032      0.011269     -0.038867
Li	      4.45297      2.53584      2.14611        -0.043016      0.045918     -0.213544
Li	      2.31498      0.00151     -2.08536        -0.474426     -0.017411     -0.029971
Mn	      0.14742      0.00202      0.14600        -0.223815      0.203784     -4.730461
Mn	      2.22328      2.53664     -0.02361         0.952469     -0.073504     -0.532387
Mn	      2.22285      0.00191      2.22125         2.566726      0.099820     -0.508383
Mn	      4.37711      2.53666     -2.17765        -1.257895     -0.211926      1.676246
O	      2.11525      0.00205      0.08405         0.257046      0.112270      0.880644
O	      4.31568      2.53591     -0.08590        -1.385527     -0.022437     -1.071937
O	      4.31519      0.00255      2.28401        -1.160081      0.044967      0.414012
O	      2.28474      2.53682     -2.11515         1.174665     -0.039859      1.497756
O	      4.48384      0.00205     -2.28591        -0.316802      0.197136      2.872211
O	      2.11600      2.53681      2.11289        -0.331428     -0.170537     -1.340971
O	      6.68318      0.00289     -0.08493        -1.024227      0.087269      0.236074
O	      0.08595      2.53685      0.08430         1.615883     -0.224001      0.430593
