# total energy = -92.56693072 eV
 
CRYSTAL
PRIMVEC
1.997609 4.236357 1.985283 
4.056851 -2.128171 -2.026548 
-0.018634 4.354307 -4.187113 
PRIMCOORD
16 1
Li	      3.98076      4.36395     -0.20722        -0.006602      0.011686     -0.006166
Li	      4.01485      0.13512     -4.14589         0.015230      0.010301     -0.000429
Li	      2.05002      4.18416     -2.11475        -0.002519     -0.007847      0.003425
Li	      4.00944      6.19951     -2.08936        -0.011588     -0.019799      0.013092
Mn	      4.05025      2.23805     -6.17298         0.043171      0.011927      0.025539
Mn	      2.03726      2.14744     -0.05455        -0.010260     -0.000948     -0.029797
Ni	      4.00598      2.24993     -2.15067         0.017823     -0.099523     -0.060119
Ni	      4.00388      4.31656     -4.12954        -0.034203      0.021379     -0.042088
O	      4.03261      4.23697     -2.16659         0.006195      0.139617      0.170170
O	      4.01783      2.26868     -4.25712         0.008298     -0.119441     -0.125764
O	      4.02043      2.06384     -0.07626        -0.005640      0.086367      0.089712
O	      4.15473     -0.12023     -2.03524         0.027363     -0.041632     -0.088178
O	      1.96267      4.08836      0.04694         0.115310     -0.045620      0.010263
O	      2.01915      2.13702     -1.94078        -0.146231      0.000889      0.067775
O	      2.02386      6.67282     -2.25852         0.098236      0.022398     -0.029020
O	      1.92402      4.55757     -4.16573        -0.114581      0.030247      0.001584
