# total energy = -102.58802917 eV
 
CRYSTAL
PRIMVEC
0.000085 4.921113 0.000034 
4.270061 -0.000032 4.269959 
4.270032 -0.000022 -4.269956 
PRIMCOORD
16 1
Li	      4.54228      0.00322      0.05782        -0.057726     -0.072570      0.552114
Li	      6.66609      2.58410      0.05793        -0.395812      0.019292     -0.051865
Li	      4.53902      2.58484      2.18758        -0.046333      0.071546     -0.240151
Li	      2.40077      0.00154     -2.08460        -0.547755     -0.035179     -0.024315
Mn	      0.19132      0.00206      0.18988        -0.272145      0.218788     -6.173343
Mn	      2.26624      2.58566     -0.02407         1.084281     -0.050185     -0.581634
Mn	      2.26581      0.00195      2.26417         2.991130      0.077571     -0.567399
Mn	      4.46169      2.58568     -2.21973        -1.410259     -0.258857      1.926003
O	      2.15613      0.00209      0.08567         0.266572      0.090729      0.961539
O	      4.39907      2.58490     -0.08756        -1.489795      0.001468     -1.230091
O	      4.39857      0.00260      2.32814        -1.283750      0.036549      0.435597
O	      2.32889      2.58584     -2.15602         1.336527     -0.026572      1.625964
O	      4.57048      0.00208     -2.33008        -0.413856      0.217737      3.990577
O	      2.15689      2.58583      2.15372        -0.421869     -0.165003     -1.462235
O	      6.81232      0.00294     -0.08657        -1.188683      0.105743      0.319612
O	      0.08761      2.58587      0.08593         1.849472     -0.231056      0.519627
