# total energy = -100.49566220 eV
 
CRYSTAL
PRIMVEC
3.870784 -0.000531 4.138519 
-0.000836 4.128939 -4.138519 
0.000573 4.127437 4.136925 
PRIMCOORD
16 1
Li	      0.00096      1.96549     -1.96429         0.193163     -0.231141     -0.618842
Li	      1.84041      3.92585      1.96435         0.221463      0.798547      0.075598
Li	      1.84063      1.96505      3.92987        -0.248380      0.137457      1.163239
Li	      0.00236      3.92620      0.00140        -0.348852      0.722742     -0.276711
Mn	      0.00157      0.00325     -0.00103        -3.381868     -2.767168     -1.095015
Mn	      1.84012      1.96444     -0.00048         3.576674     -1.735672     -3.240077
Mn	      1.84046      0.00278      1.96533         0.680715     -5.519279      0.730716
Mn	      0.00177      1.96377      1.96449        -5.958285      0.221313      2.555050
O	      0.08238      2.04838      0.17853        -3.462530     -0.280892     -3.330805
O	      0.08164      3.84314     -2.14741        -2.474436     -0.052535     -0.967452
O	      1.75929      1.78698      2.04511         3.735665      2.375856      1.487492
O	      1.92164      3.74959      0.08108         1.057192      3.160634     -0.282941
O	      3.59850      4.00661      6.07550         3.111551      1.523908      1.459662
O	      3.59817      5.80169      3.74999         2.630843      1.132720      2.169078
O	      1.75876      4.09996      3.84753         0.939470     -0.509870      0.731398
O	      1.92114      6.06248      1.88372        -0.272385      1.023378     -0.560390
