# total energy = -101.49395812 eV
 
CRYSTAL
PRIMVEC
3.891156 -0.000534 4.160301 
-0.000840 4.150670 -4.160301 
0.000576 4.149160 4.158698 
PRIMCOORD
16 1
Li	      0.00097      1.98623     -1.98502         0.188043     -0.196585     -0.544581
Li	      1.85983      3.96728      1.98509         0.193522      0.709499      0.066317
Li	      1.86005      1.98579      3.97134        -0.223287      0.123979      1.018444
Li	      0.00239      3.96763      0.00141        -0.298089      0.624557     -0.203422
Mn	      0.00159      0.00329     -0.00104        -2.965128     -2.480180     -1.040504
Mn	      1.85954      1.98517     -0.00049         3.070277     -1.481913     -2.838636
Mn	      1.85989      0.00281      1.98607         0.615929     -4.930828      0.639556
Mn	      0.00178      1.98449      1.98523        -5.199314      0.185594      2.179121
O	      0.08325      2.07000      0.18042        -2.972051     -0.276526     -2.880817
O	      0.08250      3.88370     -2.17007        -2.138070     -0.022183     -0.923201
O	      1.77786      1.80584      2.06669         3.223512      2.044379      1.286994
O	      1.94193      3.78916      0.08194         0.952018      2.745765     -0.226623
O	      3.63648      4.04890      6.13963         2.717819      1.382244      1.364446
O	      3.63615      5.86293      3.78957         2.340189      1.048610      1.924463
O	      1.77732      4.14323      3.88814         0.750834     -0.440224      0.668825
O	      1.94142      6.12647      1.90360        -0.256203      0.963814     -0.490383
