# total energy = -103.11857708 eV
 
CRYSTAL
PRIMVEC
3.931901 -0.000540 4.203864 
-0.000849 4.194133 -4.203864 
0.000582 4.192607 4.202245 
PRIMCOORD
16 1
Li	      0.00099      2.02805     -2.02681         0.165143     -0.138659     -0.402126
Li	      1.89898      4.05080      2.02688         0.140676      0.540592      0.047107
Li	      1.89921      2.02759      4.05495        -0.172607      0.099232      0.749380
Li	      0.00244      4.05116      0.00144        -0.210007      0.452477     -0.101317
Mn	      0.00162      0.00335     -0.00106        -2.191030     -1.899007     -0.908686
Mn	      1.89869      2.02696     -0.00050         2.173256     -1.039659     -2.089599
Mn	      1.89904      0.00287      2.02788         0.489752     -3.792213      0.468886
Mn	      0.00182      2.02627      2.02702        -3.799333      0.130224      1.524357
O	      0.08500      2.11358      0.18422        -2.093298     -0.245918     -2.058785
O	      0.08424      3.96546     -2.21576        -1.503032      0.021393     -0.757879
O	      1.81528      1.84386      2.11020         2.293539      1.460953      0.909350
O	      1.98281      3.86893      0.08366         0.722566      1.975235     -0.126797
O	      3.71304      4.13413      6.26888         1.967927      1.068113      1.127972
O	      3.71270      5.98635      3.86934         1.762206      0.856063      1.440103
O	      1.81474      4.23045      3.96999         0.467192     -0.315953      0.524740
O	      1.98229      6.25545      1.94368        -0.212949      0.827127     -0.346706
