# total energy = -103.75455999 eV
 
CRYSTAL
PRIMVEC
3.952274 -0.000542 4.225646 
-0.000853 4.215864 -4.225646 
0.000585 4.214330 4.224018 
PRIMCOORD
16 1
Li	      0.00100      2.04912     -2.04786         0.150057     -0.110337     -0.337496
Li	      1.91871      4.09289      2.04794         0.115877      0.457684      0.039899
Li	      1.91895      2.04866      4.09709        -0.147451      0.085848      0.626456
Li	      0.00247      4.09326      0.00146        -0.169670      0.374334     -0.067607
Mn	      0.00164      0.00339     -0.00108        -1.829201     -1.614346     -0.824756
Mn	      1.91841      2.04802     -0.00051         1.777901     -0.844965     -1.742858
Mn	      1.91877      0.00290      2.04896         0.423240     -3.236519      0.388140
Mn	      0.00184      2.04733      2.04808        -3.155619      0.107070      1.241050
O	      0.08589      2.13554      0.18614        -1.705570     -0.222067     -1.692572
O	      0.08512      4.00666     -2.23878        -1.216170      0.035230     -0.664371
O	      1.83415      1.86301      2.13213         1.879673      1.200406      0.741850
O	      2.00341      3.90913      0.08453         0.611355      1.623501     -0.086937
O	      3.75161      4.17709      6.33401         1.618472      0.905873      1.000420
O	      3.75127      6.04855      3.90954         1.483371      0.751721      1.208158
O	      1.83359      4.27441      4.01124         0.353537     -0.259910      0.452689
O	      2.00288      6.32043      1.96387        -0.189803      0.746478     -0.282064
