# total energy = -104.27997648 eV
 
CRYSTAL
PRIMVEC
3.972647 -0.000545 4.247428 
-0.000858 4.237595 -4.247427 
0.000588 4.236053 4.245791 
PRIMCOORD
16 1
Li	      0.00101      2.07029     -2.06903         0.129839     -0.086369     -0.273230
Li	      1.93854      4.13519      2.06911         0.094469      0.377748      0.034178
Li	      1.93878      2.06983      4.13943        -0.120727      0.072404      0.508171
Li	      0.00249      4.13556      0.00147        -0.133122      0.300477     -0.043644
Mn	      0.00166      0.00343     -0.00109        -1.484958     -1.333602     -0.728119
Mn	      1.93824      2.06919     -0.00051         1.415085     -0.666287     -1.413095
Mn	      1.93860      0.00293      2.07013         0.355260     -2.687699      0.313106
Mn	      0.00186      2.06849      2.06925        -2.548243      0.087661      0.987154
O	      0.08678      2.15761      0.18806        -1.351204     -0.192990     -1.354781
O	      0.08599      4.04807     -2.26192        -0.951027      0.039176     -0.566459
O	      1.85310      1.88227      2.15417         1.501639      0.962233      0.591704
O	      2.02412      3.94954      0.08541         0.504356      1.300732     -0.056111
O	      3.79039      4.22026      6.39947         1.289434      0.748323      0.862410
O	      3.79004      6.11106      3.94995         1.209442      0.635915      0.986235
O	      1.85255      4.31858      4.05269         0.253109     -0.211505      0.376660
O	      2.02358      6.38576      1.98417        -0.163351      0.653783     -0.224181
