# total energy = -104.70032930 eV
 
CRYSTAL
PRIMVEC
3.993019 -0.000548 4.269209 
-0.000862 4.259326 -4.269209 
0.000591 4.257777 4.267565 
PRIMCOORD
16 1
Li	      0.00102      2.09158     -2.09031         0.107908     -0.065176     -0.212581
Li	      1.95848      4.17772      2.09038         0.072101      0.296751      0.026880
Li	      1.95871      2.09111      4.18199        -0.096167      0.059632      0.393911
Li	      0.00251      4.17809      0.00149        -0.102712      0.231222     -0.026775
Mn	      0.00168      0.00346     -0.00110        -1.153232     -1.055468     -0.617006
Mn	      1.95817      2.09047     -0.00052         1.081595     -0.505668     -1.099592
Mn	      1.95854      0.00296      2.09142         0.285543     -2.142344      0.240339
Mn	      0.00188      2.08976      2.09053        -1.975421      0.070479      0.754365
O	      0.08767      2.17980      0.18999        -1.027747     -0.157817     -1.040133
O	      0.08688      4.08970     -2.28517        -0.711118      0.032700     -0.458515
O	      1.87216      1.90163      2.17632         1.150421      0.742040      0.453023
O	      2.04493      3.99015      0.08628         0.401665      0.998902     -0.031896
O	      3.82937      4.26366      6.46528         0.982448      0.587281      0.716988
O	      3.82902      6.17390      3.99057         0.946157      0.522932      0.774697
O	      1.87160      4.36299      4.09437         0.176102     -0.166796      0.297688
O	      2.04439      6.45142      2.00457        -0.137542      0.551330     -0.171391
