# total energy = -105.01936070 eV
 
CRYSTAL
PRIMVEC
4.013392 -0.000551 4.290991 
-0.000866 4.281058 -4.290991 
0.000594 4.279500 4.289338 
PRIMCOORD
16 1
Li	      0.00103      2.11298     -2.11169         0.083199     -0.046215     -0.155539
Li	      1.97852      4.22045      2.11177         0.051681      0.221300      0.019749
Li	      1.97875      2.11251      4.22477        -0.070987      0.045411      0.288340
Li	      0.00254      4.22083      0.00151        -0.072643      0.166379     -0.014605
Mn	      0.00169      0.00350     -0.00111        -0.839494     -0.783321     -0.488485
Mn	      1.97820      2.11185     -0.00052         0.775434     -0.357689     -0.801690
Mn	      1.97857      0.00299      2.11281         0.214975     -1.602770      0.172498
Mn	      0.00190      2.11113      2.11192        -1.433210      0.053111      0.541489
O	      0.08857      2.20210      0.19193        -0.733513     -0.118297     -0.749703
O	      0.08777      4.13154     -2.30855        -0.493563      0.025204     -0.342848
O	      1.89131      1.92108      2.19858         0.829530      0.538898      0.326486
O	      2.06585      4.03096      0.08717         0.290380      0.718880     -0.011050
O	      3.86854      4.30728      6.53142         0.700622      0.434753      0.551316
O	      3.86819      6.23706      4.03139         0.690873      0.396409      0.565792
O	      1.89074      4.40763      4.13626         0.116018     -0.126642      0.219762
O	      2.06531      6.51742      2.02508        -0.109302      0.434588     -0.121511
