# total energy = -92.20865726 eV
 
CRYSTAL
PRIMVEC
0.000157 2.071755 2.071985 
6.076374 6.256958 -4.185111 
-4.085986 2.109116 -2.109623 
PRIMCOORD
16 1
Li	     -2.05660      4.18530     -2.11529        -0.000273      0.000042     -0.001243
Li	     -2.00031      2.16344     -0.09496         0.023445      0.007303     -0.004617
Li	     -0.01191      4.16632     -0.02520        -0.000687     -0.000112     -0.000101
Li	      1.97300      4.09915     -2.02815        -0.024593     -0.008078      0.006545
Mn	     -4.01899      4.20182     -0.05886         0.041056      0.029189     -0.033813
Mn	     -0.09479      6.24108     -2.10050        -0.040089     -0.028589      0.033044
Ni	      2.07067      6.26944     -4.19981         0.008358      0.078688     -0.079319
Ni	      3.97816      6.24956     -2.10683        -0.008238     -0.077440      0.078463
O	      4.10550      6.18309     -4.11144         0.160744      0.102732     -0.110328
O	     -0.00243      6.20278     -4.13425        -0.104955     -0.084267      0.089504
O	      1.96501      8.42522     -4.28215         0.105416      0.085489     -0.089341
O	     -2.19407      4.15702     -0.01557        -0.062102      0.009385     -0.005790
O	     -0.01105      4.31124     -2.24270        -0.008592      0.034719     -0.029665
O	      1.94319      6.33587     -2.19514        -0.161634     -0.103396      0.109583
O	     -0.01665      1.95092      0.12094         0.009001     -0.036265      0.030746
O	      2.16624      4.17688     -0.03444         0.063143     -0.009400      0.006335
