# total energy = -105.37395568 eV
 
CRYSTAL
PRIMVEC
4.054137 -0.000556 4.334555 
-0.000875 4.324520 -4.334554 
0.000600 4.322947 4.332885 
PRIMCOORD
16 1
Li	      0.00105      2.15610     -2.15479         0.028720     -0.015432     -0.047036
Li	      2.01889      4.30658      2.15486         0.016767      0.069924      0.004370
Li	      2.01913      2.15562      4.31099        -0.022736      0.014954      0.088245
Li	      0.00259      4.30697      0.00153        -0.019697      0.048636     -0.002835
Mn	      0.00173      0.00357     -0.00113        -0.259139     -0.252364     -0.177573
Mn	      2.01857      2.15495     -0.00053         0.234255     -0.110252     -0.250057
Mn	      2.01895      0.00305      2.15593         0.065440     -0.527875      0.050122
Mn	      0.00194      2.15422      2.15502        -0.442307      0.015898      0.162689
O	      0.09037      2.24704      0.19585        -0.227714     -0.037130     -0.241228
O	      0.08956      4.21585     -2.35566        -0.142550      0.004338     -0.098994
O	      1.92990      1.96029      2.24345         0.264458      0.175953      0.108062
O	      2.10801      4.11323      0.08894         0.075905      0.227915      0.006497
O	      3.94749      4.39518      6.66471         0.216473      0.147341      0.184815
O	      3.94713      6.36435      4.11366         0.226385      0.131893      0.191151
O	      1.92933      4.49757      4.22067         0.041236     -0.044983      0.065927
O	      2.10745      6.65043      2.06641        -0.055496      0.151183     -0.044155
