# total energy = -105.38149744 eV
 
CRYSTAL
PRIMVEC
4.094882 -0.000562 4.378118 
-0.000884 4.367983 -4.378117 
0.000606 4.366393 4.376431 
PRIMCOORD
16 1
Li	      0.00107      2.19966     -2.19831        -0.032256      0.012877      0.046242
Li	      2.05968      4.39358      2.19839        -0.015558     -0.070979     -0.006753
Li	      2.05992      2.19916      4.39808         0.021146     -0.015169     -0.086439
Li	      0.00264      4.39397      0.00156         0.018349     -0.048776     -0.001446
Mn	      0.00176      0.00364     -0.00116         0.255027      0.252493      0.216189
Mn	      2.05935      2.19849     -0.00054        -0.221761      0.089337      0.242573
Mn	      2.05974      0.00311      2.19948        -0.091305      0.546952     -0.051520
Mn	      0.00198      2.19774      2.19855         0.429962     -0.025868     -0.159453
O	      0.09220      2.29243      0.19981         0.177247      0.043911      0.179832
O	      0.09137      4.30102     -2.40326         0.097165     -0.027952      0.151680
O	      1.96889      1.99988      2.28877        -0.196240     -0.122683     -0.070656
O	      2.15059      4.19632      0.09074        -0.140516     -0.186152     -0.006762
O	      4.02723      4.48397      6.79935        -0.157482     -0.111056     -0.260277
O	      4.02687      6.49291      4.19677        -0.183370     -0.142529     -0.137359
O	      1.96830      4.58843      4.30593         0.033411      0.028002     -0.071017
O	      2.15003      6.78478      2.10815         0.006181     -0.222408      0.015166
