# total energy = -104.07877992 eV
 
CRYSTAL
PRIMVEC
4.196745 -0.000576 4.487026 
-0.000906 4.476639 -4.487026 
0.000621 4.475010 4.485298 
PRIMCOORD
16 1
Li	      0.00113      2.31045     -2.30904        -0.184571      0.062888      0.239226
Li	      2.16342      4.61489      2.30912        -0.068766     -0.393125     -0.042160
Li	      2.16368      2.30994      4.61962         0.102299     -0.084705     -0.459662
Li	      0.00278      4.61530      0.00164         0.084230     -0.259493     -0.003460
Mn	      0.00185      0.00383     -0.00121         1.238857      1.367722      1.652667
Mn	      2.16308      2.30922     -0.00057        -1.066520      0.393959      1.236164
Mn	      2.16349      0.00327      2.31027        -0.534625      3.447865     -0.183706
Mn	      0.00208      2.30844      2.30929         2.136305     -0.188190     -0.800878
O	      0.09684      2.40790      0.20987         0.822099      0.243857      0.897040
O	      0.09597      4.51766     -2.52430         0.269962     -0.103593      0.813284
O	      2.06807      2.10062      2.40406        -0.957427     -0.617214     -0.376014
O	      2.25892      4.40769      0.09531        -0.685847     -0.889925     -0.206884
O	      0.03334      4.71040      2.65481        -0.620865     -0.516793     -1.794681
O	      0.03295      6.82054     -0.07887        -0.938003     -0.863883     -0.719595
O	      2.06745      4.81955      4.52282         0.258953      0.178330     -0.323555
O	      2.25832      7.12652      2.21434         0.143919     -1.777698      0.072215
