# total energy = -103.61642559 eV
 
CRYSTAL
PRIMVEC
4.217117 -0.000579 4.508808 
-0.000910 4.498370 -4.508807 
0.000624 4.496734 4.507071 
PRIMCOORD
16 1
Li	      0.00114      2.33294     -2.33152        -0.213680      0.073244      0.270770
Li	      2.18448      4.65980      2.33160        -0.076772     -0.451758     -0.048933
Li	      2.18474      2.33242      4.66457         0.111077     -0.096702     -0.520879
Li	      0.00280      4.66021      0.00166         0.091847     -0.295801     -0.004118
Mn	      0.00187      0.00386     -0.00123         1.374453      1.549427      2.030074
Mn	      2.18413      2.33169     -0.00057        -1.192588      0.427208      1.395190
Mn	      2.18454      0.00330      2.33275        -0.635153      4.115342     -0.184301
Mn	      0.00210      2.33090      2.33176         2.399702     -0.234938     -0.907372
O	      0.09779      2.43133      0.21191         0.898595      0.281613      0.984306
O	      0.09691      4.56162     -2.54887         0.254971     -0.108005      0.947451
O	      2.08819      2.12107      2.42745        -1.041255     -0.673040     -0.415250
O	      2.28090      4.45059      0.09624        -0.791906     -0.985420     -0.276367
O	      0.05413      4.75624      2.70253        -0.645135     -0.544625     -2.186446
O	      0.05374      6.88692     -0.05775        -1.033783     -1.008271     -0.792879
O	      2.08757      4.86646      4.56684         0.332762      0.196685     -0.355938
O	      2.28030      7.19588      2.23589         0.166867     -2.244959      0.064693
