# total energy = -103.09264194 eV
 
CRYSTAL
PRIMVEC
4.237490 -0.000581 4.530590 
-0.000915 4.520101 -4.530589 
0.000627 4.518457 4.528844 
PRIMCOORD
16 1
Li	      0.00115      2.35554     -2.35410        -0.241185      0.083976      0.304555
Li	      2.20563      4.70493      2.35418        -0.083683     -0.510264     -0.055362
Li	      2.20590      2.35501      4.70975         0.118746     -0.105906     -0.581160
Li	      0.00283      4.70535      0.00168         0.096538     -0.333616     -0.003169
Mn	      0.00189      0.00390     -0.00124         1.486466      1.710999      2.440273
Mn	      2.20529      2.35428     -0.00058        -1.308728      0.452194      1.540563
Mn	      2.20570      0.00333      2.35535        -0.744846      4.834109     -0.178855
Mn	      0.00212      2.35348      2.35435         2.639111     -0.291068     -1.010427
O	      0.09873      2.45488      0.21397         0.961345      0.313181      1.047616
O	      0.09784      4.60580     -2.57356         0.225907     -0.112010      1.077968
O	      2.10842      2.14161      2.45096        -1.100974     -0.713581     -0.449349
O	      2.30299      4.49369      0.09717        -0.888894     -1.060032     -0.353551
O	      0.07513      4.80230      2.75059        -0.642004     -0.549499     -2.605133
O	      0.07474      6.95361     -0.03642        -1.111212     -1.140584     -0.848165
O	      2.10779      4.91359      4.61107         0.409791      0.209615     -0.378469
O	      2.30239      7.26557      2.25754         0.183620     -2.787514      0.052666
