# total energy = -102.51009094 eV
 
CRYSTAL
PRIMVEC
4.257862 -0.000584 4.552371 
-0.000919 4.541833 -4.552371 
0.000630 4.540180 4.550617 
PRIMCOORD
16 1
Li	      0.00116      2.37824     -2.37678        -0.268424      0.098681      0.338652
Li	      2.22689      4.75028      2.37687        -0.086609     -0.565713     -0.059405
Li	      2.22716      2.37771      4.75514         0.127528     -0.112077     -0.637061
Li	      0.00286      4.75070      0.00169         0.101492     -0.370585     -0.003341
Mn	      0.00190      0.00394     -0.00125         1.566564      1.838226      2.881702
Mn	      2.22654      2.37697     -0.00059        -1.417631      0.468263      1.673551
Mn	      2.22696      0.00336      2.37805        -0.864214      5.613462     -0.167428
Mn	      0.00214      2.37616      2.37704         2.848967     -0.358637     -1.107808
O	      0.09968      2.47855      0.21603         1.013509      0.328062      1.058962
O	      0.09879      4.65020     -2.59837         0.190026     -0.114916      1.198783
O	      2.12874      2.16225      2.47459        -1.117633     -0.745949     -0.478598
O	      2.32519      4.53700      0.09811        -0.959784     -1.120544     -0.434514
O	      0.09632      4.84858      2.79898        -0.620506     -0.535686     -3.036288
O	      0.09593      7.02063     -0.01489        -1.173305     -1.229874     -0.860425
O	      2.12810      4.96095      4.65551         0.487068      0.207840     -0.396733
O	      2.32458      7.33561      2.27930         0.172952     -3.400552      0.029952
