# total energy = -101.87226841 eV
 
CRYSTAL
PRIMVEC
4.278235 -0.000587 4.574153 
-0.000923 4.563564 -4.574153 
0.000633 4.561904 4.572391 
PRIMCOORD
16 1
Li	      0.00118      2.40105     -2.39958        -0.296182      0.116020      0.376821
Li	      2.24825      4.79585      2.39967        -0.087566     -0.621168     -0.063923
Li	      2.24852      2.40052      4.80076         0.137582     -0.115194     -0.691818
Li	      0.00289      4.79627      0.00171         0.101687     -0.409546     -0.005328
Mn	      0.00192      0.00397     -0.00126         1.612345      1.927208      3.352857
Mn	      2.24790      2.39977     -0.00059        -1.523753      0.482586      1.792140
Mn	      2.24832      0.00340      2.40086        -0.996044      6.471053     -0.149214
Mn	      0.00216      2.39895      2.39984         3.032349     -0.434476     -1.200981
O	      0.10064      2.50232      0.21810         1.052056      0.333120      1.034341
O	      0.09974      4.69480     -2.62329         0.148607     -0.117005      1.306276
O	      2.14916      2.18299      2.49832        -1.095873     -0.766668     -0.498784
O	      2.34749      4.58052      0.09904        -1.012717     -1.170711     -0.514583
O	      0.11772      4.89509      2.84772        -0.573242     -0.500448     -3.476227
O	      0.11732      7.08798      0.00686        -1.213898     -1.282035     -0.845145
O	      2.14852      5.00854      4.70017         0.559836      0.189497     -0.416012
O	      2.34688      7.40597      2.30117         0.154814     -4.102232     -0.000419
