# total energy = -90.80736253 eV
 
CRYSTAL
PRIMVEC
0.003485 2.069435 2.083640 
8.446357 -4.213033 4.255601 
2.079181 2.101927 -4.196242 
PRIMCOORD
16 1
Li	      2.09853      2.07964     -0.00225         0.000350      0.000471     -0.000858
Li	      4.42808     -2.16170      2.20409         0.051986      0.000459     -0.007318
Li	      6.32173     -0.02652      2.12502         0.000413      0.000327     -0.000031
Li	      8.21178      0.03971     -0.03711        -0.054206     -0.002947      0.007534
Mn	      8.42464     -2.12229      6.30899        -0.084516      0.013457      0.012658
Mn	      4.21854      2.06829     -2.05950         0.084966     -0.015531     -0.012253
Ni	      4.32283     -0.02193      0.02975        -0.015206      0.085554     -0.075402
Ni	      8.31692     -2.10151      2.13612         0.016367     -0.085003      0.076650
O	      2.18254      2.17288     -2.16806         0.080321      0.011845     -0.005032
O	      6.23949     -0.01133      0.02712         0.147613      0.018562     -0.018458
O	      6.40032     -2.11117      2.13950        -0.146746     -0.019563      0.017296
O	      8.63204     -0.12082      2.23988         0.172980      0.108421     -0.128305
O	      8.50360     -2.21524      4.30282         0.045489     -0.065586      0.086733
O	      2.01062     -0.08384      0.07726        -0.080876     -0.007029      0.007200
O	      4.13968      2.16178     -0.05258        -0.046926      0.063195     -0.087511
O	      4.01123      0.06672      2.00947        -0.172009     -0.106633      0.127098
