# total energy = -26.07276318 eV
 
CRYSTAL
PRIMVEC
0.000136 2.133590 2.135966 
3.919022 -0.000031 0.000307 
-0.000166 2.133604 -2.135980 
PRIMCOORD
4 1
Li	      1.96144      2.13793     -0.00116         0.005801     -0.008929     -0.006515
Mn	      0.00244      2.13282      2.13188         0.000721      0.007347      0.005788
O	      0.00230      2.13282     -0.00381        -0.003113      0.006202      0.006407
O	      1.96198      2.13439      2.13458        -0.003409     -0.004620     -0.005680
