# total energy = -51.21818758 eV
 
CRYSTAL
PRIMVEC
-0.212024 1.809309 2.312976 
2.587467 -1.862628 -0.179492 
7.918352 5.320652 -5.309923 
PRIMCOORD
8 1
Li	      5.53956      3.48410     -0.79457         0.025884      0.025159     -0.018976
Li	      7.26840      3.57501     -2.57888        -0.025926     -0.029358      0.012642
Mn	      7.72522      6.82586     -3.23582        -0.001617     -0.026451      0.022148
Mn	      2.50678      2.06448      0.00940         0.002394      0.032109     -0.015229
O	      4.61714      2.03461      0.22748        -0.000446     -0.042432      0.031621
O	      5.21608      3.55681     -2.75303         0.000795     -0.004980     -0.002991
O	      8.20201      4.99400     -3.63246        -0.002391      0.042526     -0.029140
O	      2.55677     -0.05191     -0.20407         0.001307      0.003427     -0.000076
