# total energy = -52.62073650 eV
 
CRYSTAL
PRIMVEC
0.000093 2.183395 2.182850 
3.989431 -2.171194 2.170781 
1.979423 2.148286 -4.330519 
PRIMCOORD
8 1
Li	      4.02520      2.07667     -2.16489         0.006855     -0.023632     -0.014462
Li	      3.93037     -0.01509     -0.07302        -0.006835     -0.013860     -0.025445
Mn	      5.92525     -0.01250     -2.14489         0.006248      0.005758      0.023417
Mn	      2.03068      2.18816      0.02057        -0.015620      0.021663      0.006986
O	      4.05204      0.04506      2.40746         0.023110      0.018962     -0.008693
O	      1.98304      1.99684     -2.32359         0.001425     -0.000881     -0.004925
O	      1.92402      0.22717      0.04384        -0.020589     -0.012887      0.017292
O	      3.97762      2.13725     -0.01312         0.005407      0.004877      0.005831
