# total energy = -75.60939353 eV
 
CRYSTAL
PRIMVEC
-0.144470 1.938889 2.308794 
2.576987 -1.946517 -0.163506 
10.117683 7.040481 -9.135174 
PRIMCOORD
12 1
Li	      5.40252      5.48647     -2.91920         0.022403      0.000979      0.002859
Li	      7.49696      5.33160     -4.61167        -0.003902      0.003043      0.000838
Li	      9.61596      5.18075     -6.30257        -0.025165     -0.003266      0.002595
Mn	     10.08010      8.44459     -6.98921         0.022540      0.015079     -0.027488
Mn	      2.44809      1.81916     -0.03692         0.000687     -0.000633     -0.001081
Mn	      4.93324      2.23266     -2.22244        -0.021287     -0.015851      0.029650
O	      7.69815      5.31017     -6.55165        -0.005500     -0.054455      0.042572
O	      4.44041      4.08520     -1.83866         0.012723     -0.006967      0.018803
O	      7.46603      3.41531     -4.97763         0.007670      0.054102     -0.045491
O	      4.84347      0.08252     -2.37521         0.001191      0.061398     -0.050429
O	     10.57280      6.59159     -7.37336        -0.009949      0.008534     -0.018543
O	      2.77427     -0.33041     -0.17096        -0.001410     -0.061962      0.045715
