# total energy = -77.14609518 eV
 
CRYSTAL
PRIMVEC
-0.000030 2.076341 2.071330 
4.462475 0.000044 -0.000097 
0.000288 6.499401 -6.479095 
PRIMCOORD
12 1
Li	      2.23288      4.48675     -2.40228         0.000988     -0.023469      0.026416
Li	      4.46134      6.40671     -2.24881         0.002588     -0.003751      0.002383
Li	      2.23429      6.25096     -4.16703        -0.001897      0.019494     -0.020403
Mn	      0.00476      8.49401     -4.32672        -0.002091     -0.015272      0.011330
Mn	      2.23560      2.11797     -0.04598        -0.000220     -0.003125      0.003676
Mn	      0.00406      4.31944     -0.17088        -0.000972      0.010629     -0.016925
O	      0.00371      4.15567     -2.08176         0.002299      0.003713      0.006366
O	      2.23568      6.40654     -2.24847         0.002201      0.004574     -0.003992
O	      0.00429      2.11692     -0.04634         0.001100      0.003087     -0.000119
O	      2.23559      4.08243      0.06255        -0.002232     -0.029737      0.018173
O	      0.00418      6.58193     -4.48670         0.001138      0.000155     -0.004135
O	      2.23583      2.22946      1.91697        -0.002902      0.033703     -0.022772
