# total energy = -79.15937881 eV
 
CRYSTAL
PRIMVEC
0.000270 2.022224 2.020549 
6.985596 2.049093 -0.028481 
0.017017 4.111018 -4.112459 
PRIMCOORD
12 1
Li	      0.01849      2.08562     -2.08079         0.006551     -0.004899     -0.000634
Li	      2.34149      4.09795     -2.07788        -0.002123      0.000418      0.000973
Li	      4.65905      6.11178     -2.07220        -0.004030      0.003653     -0.001073
Mn	      7.00032      6.10814     -4.08864         0.004058     -0.005764      0.004723
Mn	      2.33042      2.04272     -0.02099         0.000338      0.000210      0.000087
Mn	      4.66377      4.13639     -0.09349        -0.004455      0.006177     -0.006221
O	      0.00467      1.92323      0.09720        -0.000774      0.011318     -0.005627
O	      2.31490      3.99928      0.04371         0.009244      0.005594     -0.009207
O	      4.66371      4.04809     -2.02702        -0.008243      0.007316     -0.010164
O	      0.01344      4.14777     -2.12636         0.008557     -0.008682      0.005894
O	      2.36409      6.21928     -2.17747        -0.009340     -0.006140      0.012366
O	      4.65685      2.16100     -0.13905         0.000219     -0.009203      0.008882
