# total energy = -78.99770929 eV
 
CRYSTAL
PRIMVEC
-0.014247 2.140211 2.236484 
3.992788 4.214392 -4.437603 
-4.004419 2.133870 -2.203513 
PRIMCOORD
12 1
Li	     -1.96030      2.07891     -0.00070         0.006148     -0.003966     -0.009120
Li	     -0.01760      4.25063     -0.06790        -0.006142     -0.000610     -0.012906
Li	      1.95626      4.20126     -2.25630        -0.014505     -0.005267     -0.000726
Mn	      3.93839      4.22148     -4.40423         0.002360      0.006030      0.010757
Mn	     -2.02571      4.30357     -2.14780        -0.017757     -0.006048      0.008489
Mn	      0.04301      6.33240     -2.22924         0.010617      0.014600     -0.001444
O	     -0.06214      4.35676     -2.19292         0.031088     -0.004404      0.002261
O	      0.03710      2.22905      0.29676        -0.005752     -0.003886     -0.009281
O	     -1.92655      6.25264     -2.21073         0.000089      0.018828     -0.011752
O	     -0.02155      6.16759     -4.61749        -0.000533     -0.021410      0.007500
O	     -2.08929      2.34793     -2.12116        -0.007508     -0.002946     -0.000512
O	      1.97801      6.31708     -2.24028         0.001897      0.009079      0.016734
