# total energy = -78.36968202 eV
 
CRYSTAL
PRIMVEC
-0.004912 2.231824 2.184902 
6.119152 -2.208119 4.330434 
2.015046 2.171151 -4.314760 
PRIMCOORD
12 1
Li	      4.24872      2.10088      2.35008         0.006079      0.002561      0.011194
Li	      6.09099      2.18545      0.03033        -0.000854      0.001458     -0.002281
Li	      5.91848      0.09842      2.02426        -0.006564     -0.002076     -0.009193
Mn	      8.02497      0.03872      0.03064        -0.046177      0.008910     -0.006972
Mn	      2.02396      2.20461      0.02214        -0.000262     -0.005671      0.002057
Mn	      2.14678     -0.07017      2.15928         0.059558     -0.005704      0.001986
O	      3.96802      0.05808      2.17542        -0.045337     -0.007137      0.006398
O	      6.21234      0.03142      4.57856         0.014104      0.007872     -0.000567
O	      2.11082      1.98139     -2.26144         0.006003     -0.014108     -0.007769
O	      1.94217      0.19558      0.12074        -0.009798      0.015215      0.009092
O	      3.95478      2.16925     -0.20383        -0.014073     -0.008025      0.001539
O	      6.19929      2.14186      2.19913         0.037322      0.006706     -0.005484
