# total energy = -89.01382543 eV
 
CRYSTAL
PRIMVEC
0.000173 2.098465 -2.098483 
-0.000211 2.098462 2.098479 
17.010331 0.000023 -0.001106 
PRIMCOORD
16 1
Li	      2.12547      2.09573      0.00132         0.000714      0.000639     -0.001032
Li	      8.71242      4.19511      0.00120         0.014874      0.001188     -0.002200
Li	     10.63094      2.09670     -0.00058        -0.000236      0.000900      0.000735
Li	     12.54876      4.19511     -0.00175        -0.012004      0.001020      0.001765
Mn	      0.16935      4.19425      0.00063         0.063165     -0.000637      0.000168
Mn	      4.08215      4.19440      0.00172        -0.073601     -0.000383     -0.000477
Ni	      6.39595      2.09626      0.00181        -0.149991     -0.000316     -0.000355
Ni	     14.86517      2.09594     -0.00121         0.152462      0.000315      0.000914
O	     15.23276      4.19435     -0.00106         0.038664      0.001496      0.000603
O	      0.09590      2.09579      0.00061         0.058582      0.001571     -0.000132
O	     10.63116      4.19520     -0.00057        -0.004826     -0.003929      0.000816
O	     12.96318      2.09636     -0.00162        -0.231484      0.000318      0.000999
O	      6.02846      4.19459      0.00190        -0.033388     -0.000103     -0.000852
O	      8.29793      2.09663      0.00119         0.232085      0.000335     -0.001289
O	      2.12552      4.19424      0.00133         0.003658     -0.003649      0.001516
O	      4.15552      2.09593      0.00177        -0.058674      0.001234     -0.001180
