# total energy = -78.75166594 eV
 
CRYSTAL
PRIMVEC
4.338180 0.000028 -0.000019 
0.000053 4.257121 -4.137318 
-2.169077 4.189292 1.999528 
PRIMCOORD
12 1
Li	      2.16572      6.36618     -0.14675        -0.001869      0.005919     -0.029342
Li	      2.16560      4.23151     -2.09000         0.000881      0.001982      0.000599
Li	     -0.00347      6.29534     -2.03365        -0.004102     -0.012140      0.028127
Mn	     -0.00339      4.24813     -4.04317         0.000063     -0.000935      0.049988
Mn	      2.16555      2.10746     -0.02156        -0.001498      0.000642      0.000190
Mn	     -0.00359      4.22441     -0.13747        -0.001910      0.001749     -0.046613
O	     -0.00356      2.10412     -0.02106         0.003520      0.005021      0.002010
O	      2.16541      4.06471     -0.01612         0.003905     -0.007300     -0.037038
O	     -0.00375      4.23602     -2.08950         0.004588      0.005698     -0.002487
O	      2.16609      6.45705     -2.21662        -0.003858     -0.058977     -0.048119
O	     -0.00333      6.20836      0.03673         0.000262      0.057716      0.042050
O	      2.16550      0.14938     -0.02805         0.000017      0.000626      0.040635
