# total energy = -79.30168674 eV
 
CRYSTAL
PRIMVEC
2.110534 4.186065 2.109807 
4.296277 -2.126646 -2.122620 
2.141978 2.068180 -4.202143 
PRIMCOORD
12 1
Li	      4.30632      2.05520     -2.10563        -0.005224      0.017260      0.016249
Li	      4.29305     -0.03899     -4.21614         0.000600     -0.001106     -0.001205
Li	      6.38950      2.04841     -4.21656         0.005555     -0.017917     -0.017700
Mn	      8.52391      4.10415     -4.19680        -0.002116     -0.016879     -0.001161
Mn	      2.12879      2.08057      0.00102        -0.002731     -0.007160     -0.002803
Mn	      2.17130     -0.00124     -2.12659         0.003432      0.022517      0.007150
O	      4.43105     -0.18621     -2.13797        -0.003369      0.001485     -0.003048
O	      6.33045      1.91267     -1.97136        -0.011000      0.022031     -0.008943
O	      4.36505      2.18912     -4.35182         0.012068     -0.012876      0.012772
O	      4.12275      2.22092      0.01671         0.001829     -0.004670      0.006142
O	      2.17142      1.96589     -2.22749         0.004719     -0.000363     -0.014804
O	      4.22765      4.26390     -1.97271        -0.003764     -0.002323      0.007350
