# total energy = -78.63659679 eV
 
CRYSTAL
PRIMVEC
2.144732 -2.138965 0.000059 
2.150669 2.145075 -4.045940 
6.407577 4.251287 1.977645 
PRIMCOORD
12 1
Li	      2.20738      0.05503     -2.07321         0.001594     -0.000233     -0.000698
Li	      4.28919      2.13477     -2.03701         0.001912     -0.000563     -0.001573
Li	      6.37140      4.21374     -2.00236        -0.004015     -0.000083     -0.000731
Mn	      4.29948      0.00548     -3.98243        -0.009306     -0.004809     -0.003156
Mn	      4.28563     -0.00800     -0.01539         0.002410      0.004061      0.010946
Mn	      6.42353      2.12385     -0.09313        -0.000178      0.002016      0.017983
O	      2.13313     -0.01891     -0.01481         0.015623     -0.000507     -0.004091
O	      4.29342      2.14232     -0.01419        -0.013419     -0.001998      0.003824
O	      6.31817      4.15731      0.04250         0.020956      0.005612     -0.018848
O	      6.45514      2.15559     -1.98320        -0.023674     -0.020880      0.034944
O	      8.66739      4.36161     -2.13983        -0.015200     -0.005273      0.014153
O	      4.26715     -0.02676     -2.09112         0.023297      0.022656     -0.052754
