# total energy = -78.90975254 eV
 
CRYSTAL
PRIMVEC
4.113381 -0.000243 0.000006 
-0.000007 -0.000045 -4.052922 
-0.000464 6.712270 -2.026586 
PRIMCOORD
12 1
Li	      2.05417      0.23674     -2.02719         0.004761      0.000766     -0.002212
Li	      0.00006      2.23703     -2.02655        -0.004842     -0.001332     -0.001801
Li	      2.05567      4.24423     -2.02663        -0.000302      0.003724      0.000160
Mn	      4.11130      0.00951     -4.05392         0.000549      0.024764      0.006034
Mn	      2.05549      2.24075     -4.05298         0.002434     -0.003855     -0.003251
Mn	      4.11271      4.47360     -4.05397        -0.007383     -0.025800      0.011888
O	      2.05583      2.24080     -2.02660        -0.000339      0.001922     -0.003937
O	      2.05469      0.29048     -4.05385         0.001643     -0.022127      0.003305
O	      4.11208      4.63447     -2.02664         0.000384     -0.068944     -0.006374
O	      4.11246      2.23895     -4.05359        -0.003033     -0.001061      0.003192
O	      2.05536      4.19043     -4.05344         0.002928      0.023194      0.002629
O	      4.11088      6.56354     -4.05315         0.003200      0.068748     -0.009633
