# total energy = -78.34456503 eV
 
CRYSTAL
PRIMVEC
-0.000350 2.047805 2.137444 
4.258883 4.171511 -4.355754 
-4.325585 2.119279 -2.212424 
PRIMCOORD
12 1
Li	     -0.10520      4.13358     -4.27062        -0.005907      0.007838      0.018110
Li	      0.07702      4.28909     -0.27481         0.011288     -0.010895     -0.017497
Li	      2.01340      4.07571     -2.09346        -0.019619     -0.009086      0.017253
Mn	     -0.09766      6.25359     -6.52084        -0.005666     -0.004413     -0.012327
Mn	     -2.07029      4.22038     -2.30280         0.015928     -0.010034     -0.005313
Mn	      2.10085      6.25925     -4.37169        -0.002384      0.002174      0.000353
O	     -0.20000      4.19872     -2.24436         0.000322     -0.000455     -0.007775
O	      0.17415      1.93103      0.18588         0.014347      0.006363     -0.009002
O	     -2.24614      6.13227     -2.25017        -0.010065      0.018206     -0.014221
O	     -0.11451      6.35802     -4.55506         0.006133     -0.005767      0.009752
O	     -2.07072      2.08758     -2.02180         0.010724     -0.002516      0.041489
O	      2.06896      6.34669     -2.41408        -0.015102      0.008585     -0.020823
