# total energy = -78.90603950 eV
 
CRYSTAL
PRIMVEC
-0.003227 2.134985 2.103897 
6.233829 -2.166522 4.228162 
2.086823 2.166420 -4.241151 
PRIMCOORD
12 1
Li	      2.12804      0.03188      2.15183         0.003950      0.002818      0.029413
Li	      4.22986     -0.06984      4.22202         0.004948      0.004749     -0.016378
Li	      6.20076      0.09973      2.08551        -0.004620      0.006840      0.000680
Mn	      8.23980      2.13154      2.08029        -0.012892     -0.004894     -0.010983
Mn	      2.03281      2.14261     -0.01547         0.015305     -0.005212      0.000242
Mn	      4.23602      2.10176      2.12342        -0.005078      0.002239      0.002349
O	      4.15430      0.12460      1.97242         0.004145     -0.002074      0.003376
O	      6.30964     -0.18360      4.16360         0.013299     -0.013376     -0.018754
O	      2.09465      2.25911     -1.97621        -0.009843      0.018946      0.014711
O	      1.94467      2.08015      1.96076        -0.025780     -0.010362     -0.006326
O	      4.04857      2.00579      0.11185        -0.020455      0.010629     -0.010233
O	      6.33129      0.04393     -0.03286         0.037020     -0.010304      0.011904
