# total energy = -77.60919792 eV
 
CRYSTAL
PRIMVEC
-0.000010 2.158161 2.160404 
12.119656 -0.000426 0.000282 
-0.000140 2.158111 -2.160355 
PRIMCOORD
12 1
Li	      4.12824      2.15808      2.15918         0.012340     -0.001128      0.002499
Li	      8.13334      0.00112      0.00044        -0.009814     -0.001161     -0.002833
Li	      9.84659      2.15825     -0.00225        -0.012621     -0.000110      0.003196
Mn	     11.98890      4.31498     -0.00020        -0.093783      0.001250     -0.002033
Mn	      2.18591      2.15676     -0.00064        -0.011813      0.002207     -0.000331
Mn	      6.10071      2.15839     -0.00062         0.033117     -0.001243     -0.000720
O	      7.91791      2.15880     -0.00085        -0.060573     -0.002182      0.000949
O	     10.20131      2.15833      2.15979         0.077774     -0.002770      0.001005
O	      4.07681      2.15593     -0.00066         0.065404      0.004767      0.000696
O	      6.05337      2.15809      2.15981        -0.021032     -0.000275     -0.000956
O	      0.15250      2.15706     -0.00060        -0.000236      0.000480     -0.000317
O	      1.95405      4.31466     -0.00056         0.021238      0.000165     -0.001155
