# total energy = -91.86625922 eV
 
CRYSTAL
PRIMVEC
4.088242 0.000308 -0.000103 
-2.044144 4.316497 -6.191244 
-2.043943 4.242899 2.015563 
PRIMCOORD
16 1
Li	      2.04496      2.12911     -0.01942        -0.000188      0.000041     -0.000661
Li	     -2.04305      4.43533     -2.22971        -0.001799     -0.004539     -0.017698
Li	      0.00100      6.40853     -2.10744        -0.000447      0.000325     -0.000161
Li	      0.00062      4.13879     -4.00050         0.001630      0.005538      0.019091
Mn	     -2.04371      4.36166     -6.11656         0.002511     -0.006572      0.118799
Mn	      0.00131      4.21261     -0.11361        -0.002964      0.006934     -0.117344
Ni	      0.00141      2.13420     -2.14406        -0.002545      0.007026     -0.019593
Ni	     -2.04382      6.44000     -4.08619         0.002413     -0.008100      0.018464
O	     -2.04322      6.40851     -2.10738         0.001438      0.001122      0.001150
O	     -2.04283      4.28139      0.07199         0.001709     -0.122993      0.073065
O	      0.00030      6.70515     -4.12775        -0.001420      0.062483      0.003256
O	      0.00061      4.21931      1.90465        -0.002787      0.121034     -0.073868
O	     -2.04427      4.46321     -4.25913         0.001927     -0.159246     -0.006069
O	      2.04552      1.86941     -2.10256         0.000725     -0.061947     -0.003525
O	      0.00184      4.11099     -1.97105        -0.001649      0.157765      0.004659
O	      0.00082      2.12888     -0.01943         0.001447      0.001130      0.000435
