# total energy = -78.91829609 eV
 
CRYSTAL
PRIMVEC
4.211039 0.000089 0.000061 
0.000034 4.243895 -4.227208 
-2.105391 4.205015 2.074763 
PRIMCOORD
12 1
Li	     -0.00126      4.28104     -0.00950        -0.000698     -0.011057     -0.000190
Li	      2.10431      4.15932     -2.19173        -0.000953      0.009711      0.007656
Li	     -0.00123      6.27744     -2.13822         0.001587     -0.021365      0.006089
Mn	     -0.00135      4.24253     -4.18716        -0.000589      0.023374     -0.028630
Mn	      2.10415      2.15133      0.01249         0.004564      0.041343      0.005930
Mn	      2.10431      6.30677     -0.10086        -0.001036     -0.009518      0.017559
O	     -0.00139      1.98005     -0.00713         0.000479     -0.058705      0.032859
O	      2.10421      4.18440      0.11220         0.000718      0.035401      0.016259
O	     -0.00129      4.16931     -2.27695         0.003098      0.026662     -0.019987
O	      2.10439      6.48904     -2.21345        -0.003875      0.046982     -0.055615
O	      2.10409      2.11667     -1.99962        -0.001048     -0.001791      0.007848
O	      2.10411      0.12033      0.02187        -0.002246     -0.081038      0.010222
