# total energy = -79.16836527 eV
 
CRYSTAL
PRIMVEC
2.134787 4.178007 2.115022 
4.282814 -2.102940 -2.100753 
2.127428 2.081401 -4.207854 
PRIMCOORD
12 1
Li	      2.24441     -0.01597     -2.12922         0.010072     -0.002695      0.015621
Li	      6.35037      4.14534     -2.06809        -0.005106     -0.011656     -0.018777
Li	      6.44729      2.07269     -4.19360         0.019922      0.003125      0.006625
Mn	      4.24519     -2.07214     -2.07499         0.000321     -0.002906      0.010662
Mn	      2.14761      2.10808      0.00332         0.015125      0.004562     -0.023682
Mn	      4.27143      2.04318     -2.07725        -0.029727      0.009625     -0.008361
O	      4.24543     -0.13290     -2.10934         0.006041     -0.008091      0.002239
O	      6.23482      1.98164     -2.16847         0.012202      0.000284     -0.010046
O	      4.12762      2.17992     -4.04410         0.013560     -0.008750     -0.038725
O	      4.37155      2.10263     -0.11784        -0.001864     -0.005548      0.035680
O	      2.29715      2.03435     -1.96017        -0.019904      0.002010      0.031472
O	      4.30604      4.30541     -2.23859        -0.020640      0.020041     -0.002710
