# total energy = -78.52004109 eV
 
CRYSTAL
PRIMVEC
2.155769 -2.258025 -0.016681 
2.170322 2.237241 -4.040153 
6.418490 4.484890 1.985760 
PRIMCOORD
12 1
Li	      6.33036      2.19321     -0.12815        -0.013026      0.004481      0.009362
Li	      4.51514      2.49039     -1.98074         0.000816      0.016627     -0.001358
Li	      6.38506      4.29183     -2.08870         0.005150     -0.002405      0.011346
Mn	      2.16119      2.20029     -3.99648         0.007397     -0.005976     -0.012827
Mn	      4.36767      0.14775      0.00986        -0.008552     -0.005439     -0.003221
Mn	      8.54977      4.39467     -0.05002        -0.014454     -0.014172     -0.002323
O	      2.30686     -0.28016     -0.06084         0.006956     -0.012301      0.014451
O	      4.11585      2.28226     -0.07286         0.019328     -0.006213      0.000586
O	      6.60769      4.39385      0.08794        -0.006565      0.003699      0.003306
O	      6.50448      2.23842     -2.16932        -0.017898      0.005277      0.002946
O	      8.53361      4.73729     -1.95543         0.004785      0.000830     -0.002510
O	      4.10047     -0.04734     -2.03347         0.016062      0.015592     -0.019757
