# total energy = -102.41611443 eV
 
CRYSTAL
PRIMVEC
-0.017671 2.777344 2.361414 
3.618947 -0.189130 0.179688 
-0.924270 9.972028 -8.298938 
PRIMCOORD
16 1
Li	     -0.31992      8.05066     -2.13847         0.004737     -0.000991     -0.011738
Li	      1.18320      7.64815     -4.29044        -0.011894     -0.008659      0.001677
Li	     -0.66559      7.35625     -5.85301         0.017438      0.008308     -0.003585
Li	      0.82267      9.73080     -5.64187        -0.001435      0.002363      0.008177
Mn	      2.44131     11.74312     -5.20288         0.017612     -0.011925      0.036038
Mn	      1.55912      2.21214      0.26247         0.008719      0.022671     -0.026557
Mn	     -0.10480      2.82239     -2.10483        -0.018553     -0.024052      0.027763
Mn	      1.68285      5.84907     -2.39879        -0.013385      0.019011     -0.037431
O	      2.94468      6.97803     -3.70676         0.006228     -0.035802      0.004787
O	      1.19245      7.83801     -6.25588         0.001405      0.021536     -0.001048
O	     -0.07671      5.21660     -1.65771         0.000309     -0.013969     -0.022511
O	      1.45817      4.70224     -3.86596         0.013279     -0.023129      0.011478
O	      3.40595      2.56189      0.08773        -0.007370     -0.024780      0.006455
O	      1.66743      2.28342     -1.75026         0.002930      0.021324     -0.000032
O	      2.68237     10.11233     -6.09648        -0.019198      0.025492     -0.010220
O	      1.50984      2.58999      2.17695        -0.000823      0.022603      0.016748
