# total energy = -103.83471671 eV
 
CRYSTAL
PRIMVEC
-0.000016 2.034914 2.033442 
7.046258 0.030310 -2.064630 
-2.336360 6.233336 -4.196822 
PRIMCOORD
16 1
Li	      2.24130      4.27155     -2.24155        -0.022232      0.026880     -0.028125
Li	      4.31259      4.18154     -4.18511        -0.026885     -0.004926      0.001457
Li	      0.39989      6.19838     -2.13538         0.026465      0.004296     -0.003105
Li	      2.47192      6.10851     -4.07931         0.020943     -0.027292      0.027111
Mn	      4.69811      6.19852     -6.19821         0.016482     -0.024956      0.029251
Mn	      2.42501      2.00096      0.03355         0.020179     -0.011802      0.011406
Mn	      4.62408      2.15158     -2.15041        -0.017352      0.012695     -0.018467
Mn	      0.01476      4.18542     -0.11905        -0.017579      0.019400     -0.021719
O	      4.79475      4.09036     -2.05643         0.009164      0.007663      0.002944
O	      4.68359      2.22604     -0.18920        -0.017593     -0.001614     -0.007956
O	      2.35618      6.20786     -2.14356         0.001279     -0.002478      0.003839
O	      2.36611      1.92707     -1.92687         0.015384     -0.001965     -0.002875
O	      4.55886      6.33228     -4.29763         0.003974      0.000134     -0.005221
O	     -0.08225      6.29504     -4.25804        -0.008696     -0.002209      0.004718
O	      0.15451      4.05065     -2.01981        -0.004706      0.005212      0.003139
O	      0.00132      2.06071     -0.02716         0.001174      0.000963      0.003604
