# total energy = -105.32063139 eV
 
CRYSTAL
PRIMVEC
0.000350 2.187126 2.188615 
6.031786 6.507179 -4.321876 
-4.005674 2.156543 -2.158317 
PRIMCOORD
16 1
Li	      4.07093      8.68794     -4.24045        -0.003652      0.014579      0.001367
Li	     -0.00089      4.39781      0.03703         0.003180      0.013196      0.003546
Li	      2.02434      4.35091     -2.09936        -0.000640      0.004400      0.012708
Li	      3.98250      6.58439     -2.13050        -0.000025     -0.001372      0.011848
Mn	      5.97157      8.66528     -2.14807         0.008562     -0.002657      0.001228
Mn	     -2.01129      4.32706     -2.14582        -0.007595      0.008490      0.000151
Mn	      0.02925      6.51282     -2.14169         0.003718     -0.001640      0.002327
Mn	      2.08143      6.48791     -4.34373        -0.008643     -0.002377     -0.006669
O	      1.97659      6.43574     -2.36936         0.019797     -0.015934      0.010702
O	      2.08483      4.45083      0.21700        -0.011995      0.002492     -0.005532
O	      0.11885      6.28778     -4.37376         0.000076      0.012726     -0.012240
O	      2.02298      8.83246     -4.14558         0.003579     -0.005075     -0.008486
O	     -2.10378      4.28366     -0.18259         0.010728     -0.009613      0.001427
O	     -0.06058      4.52972     -2.04886         0.002477     -0.015848     -0.002064
O	      4.02670      6.52428     -4.30052        -0.003433     -0.009532     -0.003826
O	      0.04620      1.94565     -0.06629        -0.016134      0.008165     -0.006487
