# total energy = -102.68024284 eV
 
CRYSTAL
PRIMVEC
-0.063879 2.511522 1.954134 
8.712527 -5.279295 3.907193 
2.075485 2.460364 -3.907877 
PRIMCOORD
16 1
Li	      6.64670      2.04056      0.09339         0.014614     -0.003416      0.002547
Li	      6.63447     -0.60672      1.94678         0.023803     -0.007908      0.039089
Li	      6.31825     -2.28764      3.91078        -0.024019      0.002367     -0.034547
Li	      8.36866     -2.47836      1.86060        -0.010796      0.004939     -0.002781
Mn	     10.62420     -2.73171     -0.05355        -0.099236     -0.027699     -0.031714
Mn	      2.02789      2.48819     -0.02268        -0.025590     -0.007904      0.004286
Mn	      4.26158      2.34702     -1.92699         0.015471      0.007106      0.013757
Mn	      4.45384     -0.22808      0.05578         0.095420      0.031738      0.020534
O	      8.85398     -3.08845      3.92626         0.017936      0.018447     -0.004994
O	      4.07173      0.18832      1.93411        -0.013327     -0.022690      0.007457
O	      6.22941      0.11110      0.06298        -0.074490     -0.009961     -0.001103
O	      6.50125     -2.70332      1.95194        -0.001811      0.003109     -0.001024
O	      8.78143     -0.54473      1.89108         0.077715      0.011465      0.004494
O	      2.24891      2.24855     -1.97685         0.018935      0.002097      0.015016
O	      2.12953     -0.06575      0.00206        -0.002370      0.000089     -0.004203
O	      4.04063      2.58951      0.03026        -0.012257     -0.001779     -0.026816
