# total energy = -100.03436130 eV
 
CRYSTAL
PRIMVEC
0.000136 2.140199 -2.140184 
0.000352 2.140088 2.139966 
17.812140 0.003916 0.002103 
PRIMCOORD
16 1
Li	      9.24410      2.14188      2.14072        -0.033939     -0.000455     -0.000605
Li	     11.34424      2.14205      0.00115        -0.015755     -0.000510     -0.000248
Li	     13.14807      4.28233      0.00121         0.021658     -0.000139      0.000087
Li	     15.24817      2.14318      0.00165         0.004490      0.000372      0.000025
Mn	     17.48110      0.00442      0.00187        -0.211788     -0.000586     -0.000098
Mn	      2.12983      2.14108     -0.00044         0.023375     -0.000149      0.000193
Mn	      4.54651      2.14130      2.13973        -0.002681     -0.000067     -0.000068
Mn	      7.00264      2.14146     -0.00024         0.180701      0.000382      0.000776
O	     13.32812      2.14233      0.00144        -0.049472      0.001071     -0.000039
O	     15.70546      0.00395      0.00182         0.324161      0.000377      0.000134
O	      8.77609      2.14171      0.00004        -0.261998     -0.000108      0.000698
O	     11.16419      4.28206      0.00095         0.055153      0.000300      0.000048
O	      4.52545      2.14139     -0.00034         0.043361     -0.000187     -0.000559
O	      6.70242      2.14142      2.13980         0.036754      0.000136     -0.000761
O	     17.78561      2.14461      0.00174        -0.032907      0.000012     -0.000353
O	      2.16821      2.14099      2.13964        -0.081115     -0.000450      0.000770
