# total energy = -104.52394931 eV
 
CRYSTAL
PRIMVEC
4.632662 -0.000026 -0.000078 
2.316378 4.192709 -6.177605 
-2.316357 4.099048 1.988971 
PRIMCOORD
16 1
Li	      2.31703      4.23015     -2.30984         0.001157     -0.006860     -0.024240
Li	      0.00090      6.25153     -2.18222         0.002014     -0.021552     -0.013384
Li	      4.63250      4.13050     -4.07506         0.000236      0.022339      0.012274
Li	      2.31759      6.15166     -3.94735        -0.000687      0.005555      0.023152
Mn	      2.31691      4.17327     -6.06147        -0.000195      0.007116      0.060145
Mn	      2.31696      2.07473      0.01183        -0.000840     -0.029881      0.004312
Mn	      0.00060      4.11567     -0.09038         0.000095     -0.002480     -0.033444
Mn	      4.63332      2.10798     -2.18491        -0.000286      0.032185     -0.057796
O	      0.00012      4.05099     -1.99634         0.001014     -0.010128      0.030480
O	      0.00054      2.09411     -0.14459         0.000986      0.011069     -0.013408
O	      2.31687      6.18990     -2.01404        -0.001434     -0.001855      0.050915
O	      2.31682      4.09460      0.06518         0.000239     -0.004534      0.006321
O	      2.31743      4.19223     -4.24408        -0.001099     -0.005171     -0.030836
O	      4.63321      6.33149     -4.26139         0.001554     -0.010655     -0.014955
O	      2.31673      1.97483     -1.96586        -0.001195      0.013634      0.016434
O	      2.31718      0.11490     -0.10245        -0.001558      0.001217     -0.015972
