# total energy = -105.25674720 eV
 
CRYSTAL
PRIMVEC
2.214977 4.190194 2.012196 
4.404542 -2.076639 -2.024565 
0.006250 4.233817 -4.121335 
PRIMCOORD
16 1
Li	      6.49840      4.28778     -2.13745        -0.025509      0.008024     -0.006243
Li	      2.26508      4.25889     -2.09506         0.005092     -0.001573     -0.006325
Li	      4.39523      6.26820     -2.05317        -0.002164      0.005341      0.005077
Li	      4.51683      4.19011     -4.03084         0.006116     -0.007692      0.000964
Mn	      4.40206      2.17426     -6.05604         0.017781     -0.008567     -0.023515
Mn	      2.19401      2.09480      0.00084         0.003364     -0.018018     -0.012112
Mn	      4.41459      4.22594     -0.07374        -0.010688      0.014535      0.025497
Mn	      4.44302      2.11962     -2.14207        -0.001056      0.011929     -0.015773
O	      2.34845      1.98206     -1.97613         0.000936      0.025285     -0.007217
O	      4.38889      4.21493     -1.98422         0.006004      0.023803     -0.018586
O	      2.06432      4.35840     -4.19870         0.011932     -0.016883     -0.004309
O	      4.51621      2.22752     -0.09217         0.000074     -0.013367     -0.030627
O	      4.40257     -0.08140     -2.01910        -0.003043     -0.055505     -0.000040
O	      2.12115      4.05148     -0.08141        -0.001565      0.000031     -0.005387
O	      4.40446      2.13662     -4.03501        -0.000811     -0.000502      0.067722
O	      2.24467      6.46479     -2.18205        -0.006465      0.033160      0.030874
