# total energy = -92.98559241 eV
 
CRYSTAL
PRIMVEC
2.069894 4.154368 2.015982 
4.110256 -2.060292 -2.020459 
0.000128 4.196526 -4.116099 
PRIMCOORD
16 1
Li	      2.06226      2.08705     -0.01272        -0.000498     -0.000284     -0.000834
Li	      0.04278      2.13458     -2.11189         0.030492      0.002697      0.006729
Li	      2.06204      4.18384     -2.07162         0.000479      0.000117      0.001028
Li	      4.08117      6.23522     -2.03042        -0.029843     -0.002136     -0.006440
Mn	      0.03031      4.17332     -4.08029         0.028217     -0.038955      0.047939
Mn	      4.09408      4.19725     -0.06157        -0.030244      0.039273     -0.048206
Ni	      4.12353      2.08394     -2.12095         0.048771     -0.041790     -0.039201
Ni	      4.11129      4.22608     -4.04136        -0.050095      0.042572      0.038715
O	      4.06264      4.11392     -1.98398        -0.007811      0.116589      0.162742
O	      4.17196      2.19620     -4.17830         0.007843     -0.117187     -0.163601
O	      4.25647      2.14988     -0.04728         0.034910      0.117446      0.095091
O	      3.97795     -0.03612     -1.99893        -0.034195     -0.117399     -0.094489
O	      2.15280      4.15719      0.07615         0.097862     -0.006636      0.018974
O	      2.10999      1.90613     -2.05960        -0.135890     -0.064205      0.005897
O	      2.01431      6.46452     -2.08243         0.136942      0.064492     -0.005502
O	      1.97157      4.21344     -4.21796        -0.096939      0.005407     -0.018841
