# total energy = -101.85383180 eV
 
CRYSTAL
PRIMVEC
0.151913 2.265733 1.912760 
2.371354 -2.162705 0.066401 
12.444389 13.937908 -9.104832 
PRIMCOORD
16 1
Li	      5.57472      7.31503     -1.72676         0.013860      0.022917     -0.014501
Li	      8.40903      9.89353     -5.10112        -0.009551     -0.001449      0.009571
Li	     10.04474     11.61159     -5.39737         0.003152      0.010725      0.009506
Li	     11.58594     11.06923     -7.37311        -0.004055     -0.000092      0.029461
Mn	     12.31887     14.16556     -8.60523         0.004311     -0.008695     -0.013463
Mn	      2.43547      2.34850      0.11006        -0.007085     -0.005550     -0.017190
Mn	      4.82102      2.19570     -2.20939        -0.001143     -0.031237      0.007395
Mn	      7.65435      6.91250     -3.76157         0.007505      0.013927     -0.001430
O	     12.14056     11.41707     -5.55713        -0.046881     -0.036208      0.030565
O	      7.46280      8.85262     -3.74110        -0.016089     -0.014173      0.016588
O	     10.39915      9.69409     -4.97830         0.067327      0.056417     -0.034172
O	      7.47192      4.90139     -3.66492         0.010966     -0.004951      0.024595
O	      4.68471      2.33643     -0.05625         0.005085      0.017478     -0.040246
O	      4.55091      4.13731     -2.18943        -0.004938      0.010922     -0.022296
O	     12.74803     14.50197     -6.74181        -0.003777      0.025442     -0.034784
O	      2.53959      0.18156      0.35380        -0.018688     -0.055474      0.050400
