# total energy = -103.10896203 eV
 
CRYSTAL
PRIMVEC
0.000022 2.138948 2.206667 
4.002666 0.000097 -0.000046 
0.000090 8.942884 -9.212339 
PRIMCOORD
16 1
Li	      2.00362      4.72292     -2.63558         0.001566     -0.020047      0.030766
Li	      2.00357      6.75100     -4.73501         0.000008      0.050726     -0.033461
Li	      0.00216      8.72247     -4.69210         0.001517      0.012938     -0.015178
Li	      2.00382      8.61221     -6.53339        -0.001035     -0.029890      0.025202
Mn	      0.00247      8.87061     -8.97370        -0.001433     -0.036302     -0.006055
Mn	      2.00355      2.13743     -0.10946        -0.001282     -0.006682     -0.015454
Mn	      0.00210      4.53071     -0.31611         0.000150     -0.042058      0.024846
Mn	      0.00219      4.55081     -4.64634         0.000195      0.027037     -0.031115
O	      0.00219      6.47395     -4.37908         0.001055     -0.002312      0.066475
O	      2.00342      6.68863     -6.80338        -0.000128     -0.011152      0.004301
O	      0.00224      4.52648     -2.48092         0.001547      0.045522     -0.054243
O	      2.00356      4.45252     -4.52455         0.000320     -0.000393      0.004513
O	      0.00216      2.04509     -0.17624        -0.000512     -0.039311      0.005387
O	      2.00345      4.08039     -0.15434         0.000453     -0.002337     -0.014650
O	      0.00240      9.15195     -6.96265        -0.000975      0.022972      0.010263
O	      2.00369      0.17969     -0.12885        -0.001447      0.031290     -0.001596
