# total energy = -104.59399528 eV
 
CRYSTAL
PRIMVEC
0.008783 2.227035 2.074573 
6.136305 6.685150 -4.129439 
-4.159313 2.259406 -2.125198 
PRIMCOORD
16 1
Li	      1.97221      6.58931     -4.08670         0.022338     -0.001606      0.003048
Li	      0.11922      4.44549     -0.06292        -0.032686     -0.027810     -0.003001
Li	      2.06893      4.61667     -2.13347        -0.004475      0.012541     -0.004478
Li	      3.99574      6.75522     -2.06403         0.009503      0.017036      0.003377
Mn	      1.92826     11.05913     -4.17474         0.012075     -0.018039      0.001077
Mn	     -2.10299      4.57770     -2.13170        -0.014157     -0.021714      0.025080
Mn	      0.02820      6.77168     -2.10791         0.039362      0.016655     -0.012113
Mn	      4.04422      8.82859     -4.16632         0.005252     -0.015596      0.018130
O	      1.86943      6.70272     -2.06410        -0.075571      0.019750     -0.000104
O	      2.15573      4.48289      0.12184         0.021025      0.025796     -0.033485
O	     -0.05355      6.50455     -4.05073        -0.003376     -0.036074      0.036932
O	      1.97468      8.87711     -4.34979        -0.047262     -0.007998      0.006667
O	     -2.16663      4.44643     -0.13094         0.025823      0.015520     -0.040862
O	     -0.09366      4.70404     -2.16105        -0.001251      0.038206     -0.009689
O	      4.15769      6.67341     -4.15144        -0.011361     -0.033724      0.015006
O	      0.05148      2.29775      0.06300         0.054760      0.017056     -0.005586
