# total energy = -104.24970782 eV
 
CRYSTAL
PRIMVEC
-0.010172 2.263466 2.043368 
8.316684 -4.575590 4.103492 
2.106025 2.301288 -4.136549 
PRIMCOORD
16 1
Li	      4.33621      0.15792      0.02964        -0.001199      0.020382      0.021590
Li	      6.42357     -0.24324      2.05283         0.014402     -0.002713     -0.010809
Li	      8.31883      0.03041     -0.00261         0.004919      0.003451      0.002664
Li	      8.08841     -2.15033      1.99212        -0.005611      0.008823      0.008856
Mn	     10.23668     -2.19279     -0.02771        -0.027814     -0.000262     -0.004077
Mn	      2.02024      2.28240     -0.01746        -0.009605      0.000040     -0.009639
Mn	      2.12206     -0.06909      2.02964        -0.023861      0.007396     -0.021556
Mn	      4.27155     -2.30512      2.04161         0.074025     -0.002752      0.014210
O	      8.27716     -2.33021      4.23596        -0.049590     -0.012502      0.010444
O	      4.08156     -0.23540      2.06898         0.000987     -0.039143      0.006587
O	      6.28877      0.29865     -0.16595         0.012580      0.048914     -0.019342
O	      6.08102     -2.20774      1.96567        -0.108218     -0.011055      0.009937
O	      8.39418     -0.09507      2.06712         0.020070     -0.017910     -0.012561
O	      2.25024      2.18806     -2.12462         0.025667      0.021409     -0.049920
O	      2.01295      0.02304      0.07154         0.011411     -0.027447      0.061316
O	      4.26221      2.23295     -0.12431         0.061838      0.003370     -0.007700
