# total energy = -101.81859384 eV
 
CRYSTAL
PRIMVEC
-0.000105 2.143162 -2.144782 
-0.000025 2.143179 2.144800 
17.073280 -0.000048 -0.000026 
PRIMCOORD
16 1
Li	      6.69616      2.14533     -0.00311        -0.021306      0.000654     -0.001087
Li	     10.74951      2.14505     -0.00266        -0.054660     -0.000114     -0.000190
Li	     12.55083      2.14497      2.14229        -0.039351      0.000774     -0.001362
Li	     14.59277      2.14452     -0.00225         0.051335     -0.000115      0.000206
Mn	     16.85615      2.14430      2.14270        -0.135097     -0.000443      0.000769
Mn	      2.13556      2.14448     -0.00214         0.018464      0.000698     -0.001079
Mn	      4.64927      2.14491      2.14231        -0.023635     -0.000370      0.000351
Mn	      8.62826      2.14524      2.14191         0.098715     -0.001066      0.001128
O	     12.69202      2.14493     -0.00252         0.037722     -0.000898      0.001318
O	     15.08225      2.14429      2.14273         0.186327      0.000359     -0.000270
O	      8.60092      2.14518     -0.00283        -0.000768      0.000355     -0.000127
O	     10.45418      2.14518      2.14199        -0.129050      0.000173      0.000119
O	      4.16633      2.14485     -0.00244        -0.041304     -0.000052      0.000286
O	      6.63994      2.14523      2.14188         0.097086     -0.000650      0.000815
O	      0.09508      2.14431     -0.00202         0.001367      0.000605     -0.001135
O	      1.97675      2.14448      2.14265        -0.045843      0.000092      0.000259
