# total energy = -104.73262017 eV
 
CRYSTAL
PRIMVEC
4.210203 0.000013 -0.000006 
2.105072 4.263079 -6.343863 
-2.105163 4.229471 2.092296 
PRIMCOORD
16 1
Li	      4.20924      2.22542     -2.25001         0.000155     -0.004330     -0.005612
Li	     -0.00102      6.31013     -2.32268        -0.000995     -0.001129     -0.003625
Li	      4.20887      3.95477     -4.21735         0.000874     -0.031143      0.017444
Li	      2.10439      6.23977     -4.15195        -0.002092      0.001730      0.005094
Mn	      2.10383      4.28896     -6.20969         0.001397     -0.028197     -0.014774
Mn	      2.10393      2.19376      0.05618         0.000946      0.019181      0.012906
Mn	     -0.00118      4.37044     -0.06728         0.000470      0.020113     -0.004657
Mn	      2.10390      4.27533     -2.25892         0.000795      0.020345      0.014515
O	     -0.00103      4.23192     -2.10069        -0.001740     -0.007333     -0.046168
O	     -0.00113      2.03596      0.07725        -0.002300     -0.002345     -0.000221
O	      2.10401      6.13781     -2.16813        -0.000099      0.033670      0.001073
O	      2.10388      4.18838      0.03565        -0.000095     -0.013096      0.026273
O	      2.10358      4.17233     -4.26562         0.003859      0.007652     -0.028695
O	      4.20885      6.60526     -4.36603         0.003063     -0.032770     -0.026922
O	      2.10414      2.26880     -1.90756        -0.001897      0.026195      0.029886
O	      2.10400      0.21284     -0.02600        -0.002342     -0.008544      0.023484
