# total energy = -104.29915712 eV
 
CRYSTAL
PRIMVEC
-0.000036 2.134634 2.150194 
4.075152 -0.000001 -0.000075 
-0.000110 8.766218 -8.822940 
PRIMCOORD
16 1
Li	      2.03754      4.52683     -2.56490         0.000014     -0.026261      0.017130
Li	     -0.00004      6.65701     -2.42099        -0.000113     -0.040493      0.020253
Li	      0.00001      8.54669     -4.32880        -0.000321      0.032948     -0.037719
Li	      2.03756      8.43297     -6.47866         0.000207      0.024922     -0.025174
Mn	      0.00005      8.64263     -8.62111        -0.000192      0.022503     -0.003752
Mn	      2.03766      2.23863      0.05306         0.000205      0.005702      0.018195
Mn	     -0.00006      4.44825     -0.26627         0.000373     -0.038143      0.019184
Mn	      2.03752      6.52313     -4.46979         0.000006     -0.005924     -0.011323
O	     -0.00009      6.52580     -4.46435         0.000362     -0.004234      0.002624
O	      2.03746      8.51229     -4.32290         0.000291     -0.039208      0.038055
O	      4.07507      4.18819     -2.29621         0.000282      0.049102     -0.050121
O	      2.03753      6.65252     -2.47972        -0.000213      0.034117     -0.046129
O	      0.00014      2.35483      0.21524        -0.000872      0.016418     -0.006032
O	      2.03752      4.24489      0.01636         0.000511      0.057810     -0.017076
O	      0.00001      8.75894     -6.73805        -0.000026     -0.067021      0.049372
O	      2.03775      0.24708      0.10388        -0.000515     -0.022236      0.032512
