# total energy = -104.79920994 eV
 
CRYSTAL
PRIMVEC
-0.011397 2.170294 2.135664 
6.118746 0.009146 -2.178663 
-2.030655 6.613195 -4.361541 
PRIMCOORD
16 1
Li	      0.04471      4.60635     -0.23455         0.010735     -0.017168     -0.005619
Li	      1.92752      4.63115     -2.36490        -0.014556     -0.015182      0.005207
Li	      0.11323      6.34854     -2.05191         0.014770      0.014476     -0.005643
Li	      1.99572      6.37341     -4.18221        -0.011227      0.019393      0.007108
Mn	      4.06238      8.70097     -4.39277        -0.000234     -0.001699      0.007408
Mn	      2.03561      2.18421     -0.02691         0.000979      0.000860     -0.002237
Mn	      4.09683      2.28991     -2.20166         0.000989      0.000303     -0.007714
Mn	      4.08529      4.40953     -4.36571         0.000905      0.000993     -0.000527
O	      4.07096      4.54531     -2.02184        -0.004149      0.013752      0.012077
O	      4.13990      2.18328     -0.22479         0.035690     -0.029451      0.002845
O	      2.15219      6.58616     -2.21619        -0.007426     -0.003447      0.005690
O	      2.12270      2.00203     -2.05125         0.000012      0.014522      0.001958
O	      4.08802      6.44462     -4.57282         0.002925     -0.012798     -0.011819
O	     -0.07078      6.80944     -4.49990         0.000607     -0.014128     -0.000990
O	     -0.11168      4.39394     -2.20062         0.009259      0.002234     -0.005112
O	     -0.06846      2.18553      0.17053        -0.039279      0.027339     -0.002632
