# total energy = -104.06364754 eV
 
CRYSTAL
PRIMVEC
-0.002295 2.129384 2.136502 
6.226718 6.429103 -4.320030 
-4.204750 2.183070 -2.184476 
PRIMCOORD
16 1
Li	      2.07432      6.37993     -4.26224         0.007092     -0.000923     -0.005349
Li	      3.99612      8.36266     -4.11847        -0.027052     -0.002723      0.014047
Li	      2.18689      4.51143     -2.39180         0.027240      0.007362     -0.015519
Li	      4.10858      6.49501     -2.24865        -0.006979     -0.001386      0.006598
Mn	      6.08859      6.37832     -4.25607        -0.032012     -0.019481      0.013204
Mn	     -2.12432      4.31517     -2.18794        -0.001815     -0.008947      0.003245
Mn	      0.09435      6.49662     -2.25503         0.049252      0.019894     -0.012319
Mn	     -0.02352      4.28788     -0.02691        -0.001042     -0.000000     -0.000303
O	      1.94012      6.47443     -2.22424        -0.045825     -0.010999      0.010210
O	      2.20733      4.10108      0.12751         0.048396      0.019721      0.002695
O	     -0.06855      6.30290     -4.19599        -0.004057     -0.005627     -0.004554
O	      2.04734      8.75489     -4.49977         0.001920      0.005425      0.005205
O	     -2.25355      4.47467     -0.18229        -0.047717     -0.011469     -0.004960
O	      0.05427      4.28628     -2.16086         0.013814      0.028405     -0.027967
O	      4.24369      6.40034     -4.28690         0.032732      0.010793     -0.009283
O	     -0.09824      2.16014     -0.02936        -0.013947     -0.030045      0.025050
