# total energy = -90.82474391 eV
 
CRYSTAL
PRIMVEC
0.000704 2.057562 2.064828 
6.186323 0.062889 -2.124708 
-2.019057 6.346660 -4.302020 
PRIMCOORD
16 1
Li	      4.06756      2.24355     -2.25328        -0.019584      0.003693      0.000893
Li	      2.18281      4.33828     -2.29496         0.041256     -0.001105      0.004735
Li	      4.05478      4.17059     -4.17569        -0.037695      0.002837     -0.004448
Li	      2.17271      6.26663     -4.21780         0.016030     -0.002344     -0.000696
Mn	      6.06107      2.12817     -0.07147        -0.041308     -0.013186      0.035427
Mn	      2.19791      2.09337     -0.03295         0.039268      0.011511     -0.034752
Ni	     -0.06167      4.24696     -0.13337         0.008909     -0.033824      0.028044
Ni	      0.11466      6.25795     -2.14833        -0.006581      0.033364     -0.027065
O	      0.02674      4.22351     -2.17309        -0.003279     -0.001053     -0.004620
O	      0.01849      2.01187      0.04899         0.018203     -0.061959      0.058824
O	      4.23473      6.54352     -4.50423        -0.079404      0.043043     -0.055597
O	      4.20147      4.25322     -2.20028        -0.157003     -0.029809      0.033628
O	      0.03140      6.43563     -4.39519        -0.015313      0.061911     -0.055130
O	      4.13117      2.11004     -0.05159        -0.001806      0.000321     -0.003824
O	      2.03777      6.31476     -2.20637         0.156135      0.027547     -0.027423
O	      2.00446      1.96697     -1.96735         0.082171     -0.040945      0.052003
