# total energy = -104.81946770 eV
 
CRYSTAL
PRIMVEC
-0.003729 2.124058 2.142007 
8.327152 -4.285161 4.306417 
2.077214 2.139606 -4.303241 
PRIMCOORD
16 1
Li	      4.27353     -0.12330      0.06838         0.009630     -0.014662     -0.013378
Li	      4.24338     -2.14383      2.15697        -0.004878     -0.010075      0.016439
Li	      8.23728     -0.01030     -0.00626         0.005242      0.008466     -0.016386
Li	      8.20753     -2.03221      2.08182        -0.009205      0.016814      0.012656
Mn	     10.28591     -0.00145      2.06916        -0.033817      0.012267     -0.007626
Mn	      2.07506      2.12718     -0.00741         0.003712     -0.001830      0.005130
Mn	      2.19155     -0.02937      2.22312         0.029476     -0.011299      0.007186
Mn	      6.23863     -0.01524      2.14634         0.001202     -0.001025      0.000154
O	      8.45843     -2.30211      4.23658         0.011243      0.009441     -0.020553
O	      4.05157     -0.05462      2.15705        -0.011204      0.020919     -0.010691
O	      6.23508     -0.14895      0.15918         0.005198     -0.000044     -0.025111
O	      6.24595     -2.00565      1.99150        -0.007634      0.000677      0.024162
O	      8.42553      0.02380      2.13528         0.017523     -0.020363      0.010702
O	      2.16560      2.23348     -2.01863         0.006353      0.028067      0.022203
O	      1.98858     -0.10346     -0.13781        -0.007645     -0.026450     -0.023932
O	      4.01919      2.27155      0.05582        -0.015195     -0.010904      0.019043
