# total energy = -102.50561577 eV
 
CRYSTAL
PRIMVEC
-0.000105 2.234005 -2.084723 
-0.000022 2.234009 2.084726 
16.656279 -0.000594 0.000086 
PRIMCOORD
16 1
Li	      6.63002      2.23232     -0.00113         0.014147      0.000046      0.000040
Li	      8.37595      2.23246      2.08307        -0.013048     -0.000115     -0.000576
Li	     12.44537      2.23290      2.08268         0.016017     -0.000317      0.000612
Li	     14.19250      2.23324     -0.00160        -0.034170     -0.000036      0.001388
Mn	     16.35987      4.46586     -0.00076        -0.115726      0.001273     -0.000483
Mn	      2.08051      2.23237     -0.00056        -0.001402      0.001215     -0.000774
Mn	      4.45469      4.46658     -0.00068         0.126800      0.000574     -0.000421
Mn	     10.41079      2.23268     -0.00182        -0.004739      0.000284     -0.001150
O	     12.26937      2.23257     -0.00217        -0.067076      0.000267      0.002739
O	     14.57162      4.46514     -0.00113         0.108570      0.000435     -0.000141
O	      8.55174      2.23272     -0.00234         0.061634     -0.001946      0.002949
O	     10.41124      2.23259      2.08309        -0.001896     -0.000336     -0.002521
O	      4.15138      2.23267     -0.00058        -0.003600      0.000581     -0.000554
O	      6.24245      4.46681     -0.00081        -0.089372      0.000520     -0.000128
O	      0.00888      2.23270     -0.00070         0.006926     -0.002270     -0.000578
O	      2.08279      4.46645     -0.00055        -0.003065     -0.000176     -0.000402
