# total energy = -105.03141311 eV
 
CRYSTAL
PRIMVEC
4.191734 -0.000016 0.000026 
2.095847 4.268597 -6.233862 
-2.095867 4.304137 2.102161 
PRIMCOORD
16 1
Li	      4.19264      2.23982     -2.17736         0.003179      0.040145     -0.065547
Li	      2.09647      4.40212     -2.19939         0.002341      0.041756     -0.003343
Li	      4.19247      4.16166     -4.01898        -0.000153     -0.040498      0.003315
Li	      2.09680      6.32415     -4.04092        -0.001796     -0.039618      0.066117
Mn	      0.00118      8.51773     -4.06529        -0.000802     -0.128285      0.136011
Mn	      2.09730      2.14719      0.00797        -0.004745      0.007845      0.002402
Mn	      0.00120      4.35042     -0.05138        -0.004629      0.120555     -0.113522
Mn	      0.00089      6.43388     -2.05716         0.000294      0.009625     -0.018910
O	      0.00075      4.45402     -1.95505         0.003110     -0.111080      0.119214
O	      0.00089      2.14751      0.00815         0.003157     -0.001061     -0.002977
O	      2.09675      6.43397     -2.05781         0.000401     -0.000144      0.001127
O	      2.09678      4.17602      0.18237        -0.002093     -0.035191      0.032841
O	      2.09691      4.11010     -4.26267        -0.002511      0.106555     -0.126412
O	      4.19282      6.46069     -4.04081        -0.001025      0.091653     -0.056303
O	      2.09672      2.10367     -2.17730         0.000340     -0.092276      0.065899
O	      2.09678      0.11944     -0.16658         0.004930      0.030019     -0.039911
