# total energy = -105.33790728 eV
 
CRYSTAL
PRIMVEC
2.068682 4.331258 2.134946 
4.124295 -2.162900 -2.127765 
-0.002118 4.325633 -4.257023 
PRIMCOORD
16 1
Li	      4.09374      2.19566     -2.07800        -0.004525     -0.013541      0.005210
Li	      4.08441      0.17268     -4.17663        -0.015811     -0.020595      0.003038
Li	      4.16710      6.32038     -2.19621         0.015035      0.019134     -0.009016
Li	      4.15810      4.29751     -4.30285         0.002996      0.014221      0.000966
Mn	      6.14630      6.47143     -4.22464        -0.002195     -0.015703     -0.011520
Mn	      2.06492      2.16440      0.00395        -0.000576      0.002752     -0.004320
Mn	      2.10437      0.01962     -2.15132         0.000291      0.019626      0.012525
Mn	      2.06366      4.32801     -2.12452         0.001481     -0.006381      0.003398
O	      2.05498      2.32334     -1.94872        -0.020519     -0.002863      0.001084
O	      4.02376      4.33671     -1.96253        -0.000974     -0.003338     -0.006292
O	      1.98240      4.49712     -4.38240        -0.009126     -0.026203     -0.025552
O	      4.23648      2.13053      0.05336         0.025942     -0.021276     -0.019228
O	      4.01641      0.03506     -2.17195        -0.021882      0.021892      0.017326
O	      2.14393      4.15748      0.13367         0.011718      0.023958      0.025597
O	      4.22776      2.15566     -4.41254        -0.002980      0.002810      0.003199
O	      2.07211      6.33183     -2.30094         0.021126      0.005507      0.003584
