# total energy = -101.74267051 eV
 
CRYSTAL
PRIMVEC
-0.091282 1.984428 2.205746 
2.454567 -2.030983 -0.053672 
11.840509 11.471236 0.026388 
PRIMCOORD
16 1
Li	      4.81100      1.81343     -2.26646        -0.000382      0.009056      0.000531
Li	      7.88750      7.42473     -7.16437         0.007489      0.020241     -0.007510
Li	      9.38722      9.74884     -6.64446        -0.000452      0.015772     -0.004704
Li	     11.06694      9.72897     -8.36305        -0.017030     -0.022673      0.019603
Mn	     11.67000     12.99401     -9.15716         0.019991     -0.016322     -0.007017
Mn	      2.49766      1.76280     -0.20615         0.026737      0.000794     -0.012888
Mn	      4.51827      5.90270     -2.04522        -0.035420     -0.002761      0.020093
Mn	      7.16813      6.15414     -4.16837        -0.016823      0.029399     -0.012567
O	     11.55165      7.86662     -8.65195        -0.036133     -0.026263      0.024497
O	      6.91619      6.06567     -6.09604        -0.007494     -0.023261      0.034022
O	      9.85241      7.26047     -6.96356         0.038120      0.010401     -0.026622
O	      7.06473      4.05760     -4.27941         0.013982      0.057697     -0.026450
O	      2.21636      3.74407     -0.01067        -0.008545      0.028574     -0.045466
O	      4.79785      3.91073     -2.23207         0.008449     -0.025079      0.040500
O	     12.01872     11.10136     -9.43752         0.015670      0.007229     -0.024067
O	      2.47938     -0.39135     -0.23926        -0.008158     -0.062803      0.028046
