# total energy = -103.52507938 eV
 
CRYSTAL
PRIMVEC
0.000004 2.091474 2.090190 
4.290665 0.000008 0.000005 
-0.000009 8.708994 -8.705753 
PRIMCOORD
16 1
Li	      4.29033      4.27140     -0.08925        -0.000504     -0.003312      0.001939
Li	      2.14364      6.69142     -4.59282         0.000467     -0.002680      0.001926
Li	      4.28849      8.61885     -4.44441         0.001034      0.003997      0.000040
Li	      2.14369      8.47254     -6.37477         0.000509      0.002258     -0.006181
Mn	      4.29002      8.65758     -8.65148         0.001607     -0.058599      0.063939
Mn	      2.14505      2.15254     -0.06207        -0.001446      0.043444     -0.041263
Mn	      2.14476      4.29433     -2.20207        -0.000322     -0.052870      0.042577
Mn	      4.29003      4.41180     -4.40602        -0.000843      0.052291     -0.058379
O	      4.28982      6.33491     -4.23347         0.001010     -0.055579      0.058320
O	      2.14419      6.53516     -6.52822        -0.000524     -0.002435      0.000720
O	      4.28996      4.41124     -2.32226         0.000955      0.010337     -0.005449
O	      2.14465      4.21641     -4.21249         0.000103      0.046550     -0.035808
O	      4.29031      2.03433      0.05631        -0.000762     -0.004683      0.002956
O	      2.14492      4.26863     -0.09136        -0.000773     -0.011068      0.002498
O	      4.29008      8.83068     -6.73015        -0.000574      0.051563     -0.053476
O	      2.14489      0.13880     -0.13505         0.000064     -0.019215      0.025642
