# total energy = -104.56369943 eV
 
CRYSTAL
PRIMVEC
0.000047 2.120222 2.118339 
6.245232 -0.003144 -2.115086 
-2.085279 6.353898 -4.229948 
PRIMCOORD
16 1
Li	      4.16080      2.11723     -2.11478         0.000179     -0.000651      0.001043
Li	      4.09729      4.22760     -4.22615        -0.029742      0.011523     -0.012706
Li	     -0.00356      6.35543     -2.11112        -0.000711     -0.000445      0.000286
Li	      2.13939      6.35940     -4.23081         0.029965     -0.010048      0.011627
Mn	      4.09062      8.43104     -4.18427        -0.019207     -0.009798      0.007657
Mn	      2.23736      2.09499      0.02619        -0.037418     -0.012003      0.013964
Mn	     -0.16030      4.26206     -0.02077         0.038983      0.015273     -0.016516
Mn	      2.14596      4.27771     -2.15524         0.020801      0.013222     -0.012367
O	      4.07189      4.26988     -2.14781        -0.084224      0.000338      0.000115
O	      4.25051      2.08472      0.03851         0.080827     -0.002406      0.000596
O	      2.06161      6.23280     -1.99049         0.000611      0.030766     -0.035326
O	      2.11054      2.12515     -2.12352         0.000741     -0.000220      0.003700
O	      4.17588      6.47687     -4.34965         0.000399     -0.034196      0.037082
O	     -0.11875      6.43030     -4.30429        -0.018127      0.005711     -0.003397
O	      0.11149      4.16163     -2.03987         0.016109     -0.003944      0.005260
O	     -0.03409      2.11053      0.01225         0.000815     -0.003121     -0.001019
