# total energy = -103.84642519 eV
 
CRYSTAL
PRIMVEC
-0.000017 2.136868 2.137314 
6.185287 6.424650 -4.288700 
-4.172889 2.172535 -2.172943 
PRIMCOORD
16 1
Li	     -0.03770      6.44311     -2.17152        -0.000306      0.000318      0.000340
Li	      0.09587      4.50106     -0.22824         0.007023      0.004325     -0.003440
Li	      2.04876      4.28753     -2.15469        -0.000556      0.000226      0.000920
Li	      4.00148      6.21274     -1.94131        -0.006139     -0.003948      0.003009
Mn	      6.09744      6.37033     -4.23497         0.008414      0.010718     -0.011591
Mn	     -1.99713      4.36975     -2.23389         0.018922      0.011453     -0.008702
Mn	      1.92153      6.38075     -4.24629        -0.018669     -0.011313      0.010504
Mn	     -2.00003      2.20789     -0.07165        -0.008412     -0.010720      0.010780
O	      2.05955      6.55631     -2.28499         0.003898     -0.005686      0.008899
O	      2.03798      4.15867      0.11521        -0.004444      0.005068     -0.009126
O	      0.07499      6.44476     -4.31068         0.020515     -0.006678      0.010205
O	      1.95646      8.56562     -4.29357        -0.032268     -0.007317      0.007078
O	     -2.03233      4.32127     -0.04812         0.031645      0.008011     -0.009241
O	     -0.15057      4.30514     -2.16929        -0.019654      0.007535     -0.009747
O	      3.98005      6.58618     -4.45122        -0.055281      0.002285      0.003166
O	      0.11744      1.99243      0.14421         0.055310     -0.004277     -0.003054
