# total energy = -105.15176182 eV
 
CRYSTAL
PRIMVEC
4.220687 -0.000158 -0.000108 
2.110346 4.273332 -6.268775 
-2.110574 4.261043 2.081111 
PRIMCOORD
16 1
Li	      0.00101      4.26074     -0.00552        -0.001991     -0.000752      0.001811
Li	      0.00044      6.39430     -2.21405         0.001161      0.000718     -0.009835
Li	      4.22109      4.27018     -4.17756        -0.000044      0.000874     -0.001562
Li	      2.11133      6.40193     -4.05990        -0.001971     -0.001204      0.007235
Mn	      2.11086      4.25888     -6.16210         0.000291      0.004108     -0.007930
Mn	      2.11087      2.16208      0.06731        -0.000752      0.043709      0.033578
Mn	      4.22155      2.09831     -2.15791        -0.000871     -0.044228     -0.028204
Mn	      2.11032      4.27499     -2.19408         0.007720     -0.002366      0.005251
O	      4.22119      4.14089     -2.13161        -0.002086      0.043415      0.018803
O	      0.00055      1.99325     -0.11163        -0.001135      0.043972     -0.062591
O	      2.11073      6.18751     -2.01698         0.000748      0.042004      0.026023
O	      2.11099      4.26039     -0.00888        -0.002193      0.000465      0.002848
O	      2.11097      4.26843     -4.17537        -0.001702     -0.006489      0.004250
O	      4.22104      6.60684     -4.26064        -0.001161     -0.033421     -0.026407
O	      2.11113      2.26700     -1.97977         0.002452     -0.045333      0.054964
O	      2.11093      0.12003      0.04263         0.001533     -0.045472     -0.018233
