# total energy = -91.69544117 eV
 
CRYSTAL
PRIMVEC
-0.001405 2.077833 2.082750 
6.087852 0.051325 -2.137921 
-2.003881 6.412626 -4.337952 
PRIMCOORD
16 1
Li	      1.97811      2.20852     -0.14737        -0.012327      0.015535      0.010888
Li	      0.08146      4.43159     -0.28397        -0.005822      0.007807      0.003696
Li	      1.95631      4.26234     -2.18956         0.004053     -0.002267      0.004960
Li	      4.07421      4.22425     -4.22307        -0.001857     -0.027907      0.023385
Mn	     -1.93123      6.42747     -4.34824         0.047398      0.019924     -0.023736
Mn	      3.98701      2.17494     -2.18206        -0.014585      0.035949     -0.035741
Ni	      0.06283      6.27810     -2.11998        -0.056659     -0.001729     -0.002520
Ni	      1.99794      6.35115     -4.26789         0.009889      0.098511     -0.106863
O	     -0.06608      4.28254     -2.20822        -0.004904     -0.134875      0.134186
O	     -0.03681      1.97003      0.11632        -0.015442     -0.033328      0.022664
O	      4.02652      6.61265     -4.53833         0.021417      0.043286     -0.072742
O	      4.12051      4.08169     -2.00760        -0.005257     -0.022192      0.025842
O	     -0.06273      6.37569     -4.29610        -0.166912      0.089428     -0.076548
O	      4.14142      2.20328     -0.13359        -0.000649      0.067629     -0.037976
O	      2.08189      6.47255     -2.30904         0.144177     -0.139935      0.119671
O	      2.18710      2.13332     -2.14300         0.057479     -0.015835      0.010834
