# total energy = -105.21360909 eV
 
CRYSTAL
PRIMVEC
2.097513 4.113907 2.114659 
4.249039 -2.065274 -2.151576 
0.014847 4.127565 -4.272389 
PRIMCOORD
16 1
Li	      4.22530      4.11526     -0.03287         0.002020      0.001290      0.000690
Li	      2.14721      4.11451     -2.17648         0.007784      0.014661     -0.021994
Li	      2.13515      2.06654     -4.28087         0.001321     -0.000082     -0.000411
Li	      4.22045      4.12936     -4.27178        -0.007542     -0.012941      0.020297
Mn	      4.25584      2.11926     -6.36871        -0.004852      0.005067      0.008239
Mn	      2.17128      2.07789      0.02053        -0.000221     -0.002396      0.004223
Mn	      4.18245      2.03935     -2.19720        -0.004561     -0.007586     -0.006575
Mn	      2.11222      6.12537     -0.08055         0.009761     -0.002697     -0.004108
O	      2.00036      2.06447     -1.98921        -0.029207     -0.011708      0.001377
O	      4.40650      3.96170     -2.27310         0.012554      0.031107      0.006647
O	      1.96184      4.28302     -4.17504        -0.014269     -0.030262     -0.008564
O	      4.35288      2.05206     -0.18831         0.027781      0.013016     -0.000355
O	      4.19479      0.01663     -2.12494        -0.028859      0.003888      0.013209
O	      2.15867      4.09974     -0.05288         0.026780      0.000059     -0.010295
O	      4.13873      1.93898     -4.18309         0.012264      0.006455      0.001854
O	      2.22930      6.30639     -2.26539        -0.010755     -0.007871     -0.004234
