# total energy = -103.57677217 eV
 
CRYSTAL
PRIMVEC
-0.010021 2.386175 2.042471 
2.071138 -2.378201 -0.025048 
10.540293 14.337972 0.029680 
PRIMCOORD
16 1
Li	      4.23448      2.62432     -2.11788         0.003610      0.004072      0.006737
Li	      6.29281      7.25134     -4.13550        -0.005965      0.025586      0.000246
Li	      8.42699     12.21967     -6.16093         0.003801     -0.010783      0.004192
Li	     10.32876     11.53522     -8.14503        -0.016097     -0.002156     -0.018853
Mn	     10.57829     14.26356    -10.17764        -0.000885      0.007100      0.030823
Mn	      2.20088      2.56920     -0.08453         0.023769      0.024712     -0.015556
Mn	      4.22003      7.19575     -2.09756        -0.000752      0.002811     -0.000226
Mn	      8.32322      7.12582     -6.17508         0.008290      0.000772     -0.033383
O	     10.45229      9.52843     -8.21589        -0.013880     -0.001942     -0.007811
O	      6.33470      9.48144     -4.17962        -0.007135     -0.004359     -0.004748
O	      8.18824      9.32368     -6.06633        -0.022502     -0.007800      0.010593
O	      6.18864      4.73801     -4.07128        -0.009876     -0.014948     -0.006792
O	      2.11082      4.70136     -0.01460         0.017518     -0.019920     -0.014586
O	      4.32002      4.76342     -2.17858         0.009376      0.002226      0.005857
O	     10.73229     14.53024     -8.26884         0.033975      0.009881     -0.001906
O	      2.10969      0.09602      0.02353        -0.023249     -0.015254      0.045413
