# total energy = -105.07185506 eV
 
CRYSTAL
PRIMVEC
0.012924 2.172754 2.205978 
6.008429 0.006041 -2.173858 
-2.006855 6.468307 -4.377549 
PRIMCOORD
16 1
Li	      3.93098      2.22867     -2.09012        -0.016258      0.006390      0.002684
Li	      1.99811      4.38037     -2.40533         0.004227     -0.000201     -0.004746
Li	      0.14997      6.42039     -2.22140         0.002044     -0.017976     -0.013187
Li	      1.96332      6.26661     -4.32045        -0.010182      0.003910      0.000617
Mn	      3.94154      8.56215     -4.34836         0.003318     -0.003294      0.005286
Mn	      2.10591      2.20910      0.10247         0.013899      0.013001     -0.006975
Mn	      0.02431      4.42646      0.05847        -0.003405      0.004675     -0.008848
Mn	      3.94846      4.27664     -4.40393        -0.005888     -0.010374     -0.000358
O	      4.09956      4.48212     -2.15681         0.007782     -0.006413     -0.003986
O	      4.03864      2.28145      0.02055         0.028821      0.009499      0.009100
O	      2.10066      6.40375     -2.22509         0.005987     -0.002527     -0.006810
O	      1.93268      2.26073     -1.84478         0.006523      0.013785     -0.008175
O	      4.03028      6.28905     -4.59755        -0.003084      0.000503     -0.009559
O	     -0.08901      6.43871     -4.53006        -0.012075     -0.018731      0.035215
O	     -0.06042      4.18767     -2.17885        -0.004225      0.006559     -0.002883
O	      0.04920      2.38842      0.20531        -0.017484      0.001194      0.012622
