# total energy = -105.20050888 eV
 
CRYSTAL
PRIMVEC
-0.001391 2.102058 2.072017 
8.590518 -4.259251 4.197373 
2.150731 2.143602 -4.189598 
PRIMCOORD
16 1
Li	      4.27007      2.13017     -2.02869        -0.005560     -0.005525      0.007206
Li	      4.50674     -2.15497      2.12826         0.008231     -0.007030      0.000603
Li	      6.55409     -2.15845      4.15274         0.004788      0.019220     -0.021962
Li	      8.55964     -2.00697      2.05689        -0.010427     -0.001012      0.000611
Mn	     10.64268     -0.01495      2.07136        -0.031177     -0.006892     -0.001384
Mn	      2.04120      2.10267     -0.00424         0.020896      0.003941     -0.004402
Mn	      4.23852     -0.05764      0.04397         0.013577     -0.000089      0.001312
Mn	      6.62314      0.02077      2.05688        -0.007590     -0.001124     -0.000568
O	      8.67465     -2.28528      4.12164         0.008708     -0.002522     -0.008088
O	      4.21031      0.07149      2.00015        -0.022155     -0.011138      0.012340
O	      6.47590     -0.07530      0.05761         0.006326      0.012442     -0.018276
O	      6.50523     -1.93990      1.93795         0.023230     -0.010959      0.015697
O	      8.74072      0.04627      2.04601         0.040480     -0.005261      0.015714
O	      2.12990      2.21214     -1.95471        -0.000312      0.005642      0.029741
O	      1.95535     -0.08360     -0.10282        -0.022675     -0.002663     -0.012598
O	      4.07968      1.94985      0.13041        -0.026340      0.012972     -0.015945
