# total energy = -103.67604482 eV
 
CRYSTAL
PRIMVEC
-0.000155 2.162060 -2.126721 
0.000159 2.162052 2.126712 
16.132815 0.000199 0.001196 
PRIMCOORD
16 1
Li	      4.18398      0.00265      0.00249        -0.002382      0.001957     -0.001048
Li	      8.09261      0.00294      0.00009        -0.006511     -0.000222      0.001215
Li	     12.11048      0.00338      0.00039         0.047953      0.000612      0.000678
Li	     13.85036      2.16650      0.00246        -0.017530      0.000159      0.000505
Mn	     15.96186      0.00374      0.00391        -0.073728     -0.000186     -0.001336
Mn	      2.20234      2.16522      0.00273        -0.018567      0.000640     -0.001642
Mn	      6.13663      2.16468      0.00117        -0.003778      0.000955      0.000144
Mn	     10.05846      2.16484     -0.00023         0.058646      0.001064      0.002146
O	     11.89344      2.16524     -0.00029        -0.086213     -0.001436      0.002893
O	     14.17092      0.00388      0.00351         0.053134     -0.002279     -0.002263
O	      8.09626      2.16447      0.00012         0.002705     -0.000585      0.001745
O	     10.04400      0.00276     -0.00006        -0.034804     -0.000906     -0.000147
O	      4.16508      2.16467      0.00188         0.085851      0.000802      0.000242
O	      6.11698      0.00259      0.00119         0.014741      0.000467      0.000479
O	      0.04212      2.16557      0.00290        -0.013378     -0.000137     -0.002074
O	      1.93373      0.00320      0.00277        -0.006140     -0.000905     -0.001536
