# total energy = -105.25405408 eV
 
CRYSTAL
PRIMVEC
4.192402 0.000009 -0.000039 
2.096249 4.137288 -6.415344 
-2.096247 4.145599 2.143810 
PRIMCOORD
16 1
Li	     -0.00071      4.20258     -0.01394         0.003347     -0.019600     -0.005160
Li	      2.09553      4.17926     -2.22319         0.003091      0.000941     -0.002574
Li	      4.19168      4.10513     -4.27310         0.001859      0.002809      0.009367
Li	      2.09560      6.09960     -4.19563         0.000396     -0.027174     -0.005426
Mn	     -0.00044      8.23577     -4.24102         0.000801      0.031318     -0.006913
Mn	      2.09547      2.10097      0.04740         0.006054      0.071738      0.048757
Mn	      4.19195      2.15803     -2.17006        -0.000124      0.000216     -0.017200
Mn	     -0.00056      6.15383     -2.17459         0.000258     -0.015934      0.006879
O	     -0.00040      4.23768     -2.14101        -0.003754      0.013856      0.006358
O	     -0.00038      1.95787     -0.07887        -0.000706     -0.061963     -0.061480
O	      2.09591      6.17597     -2.04752        -0.003292      0.007001     -0.009892
O	      2.09556      4.04554      0.20800        -0.000693      0.006058      0.028572
O	      2.09588      4.00713     -4.46924         0.001134      0.013679     -0.007734
O	      4.19217      6.29430     -4.29341        -0.001462      0.033373     -0.031791
O	      2.09573      2.12463     -2.11630        -0.003243      0.004283      0.049739
O	      2.09574      0.14253      0.01365        -0.003665     -0.060598     -0.001501
