# total energy = -105.38919145 eV
 
CRYSTAL
PRIMVEC
2.103223 4.156395 2.147044 
4.210914 -2.060514 -2.186249 
0.038687 4.151440 -4.325404 
PRIMCOORD
16 1
Li	      2.16965     -0.00425     -2.14827        -0.016538      0.012023      0.010551
Li	      4.17031      0.05706     -4.27240        -0.022572     -0.007187      0.007709
Li	      4.26181      6.15844     -2.33002         0.010826     -0.014950      0.008890
Li	      4.26484      4.16908     -4.35314        -0.010465     -0.002609     -0.004016
Mn	      4.20580      2.13474     -6.46724         0.009309     -0.021814      0.000957
Mn	      2.14473      2.06606      0.02118         0.009992      0.003718     -0.008341
Mn	      4.18359      2.07664     -2.19374        -0.013251      0.025574     -0.001361
Mn	      2.15867      4.16617     -2.18941         0.003317      0.008564     -0.008462
O	      2.19479      2.18290     -1.98856        -0.002932      0.000451      0.014307
O	      4.10392      4.03751     -2.19963         0.009792     -0.003811     -0.009374
O	      1.99005      4.29243     -4.37858        -0.008253     -0.031060     -0.012065
O	      4.33134      2.07607      0.01908         0.012465     -0.002523     -0.010137
O	      4.17249      0.14954     -2.22817         0.003525      0.022055      0.003133
O	      2.00454      4.07069      0.11759         0.006173      0.021056      0.011509
O	      4.36074      2.08276     -4.45987         0.010518      0.002456     -0.001424
O	      2.20590      6.12272     -2.33374        -0.001907     -0.011944     -0.001875
