# total energy = -103.45748407 eV
 
CRYSTAL
PRIMVEC
-0.002802 2.030465 2.044623 
2.395251 -2.046466 0.011519 
11.976443 12.347331 0.026073 
PRIMCOORD
16 1
Li	      5.02493      2.09677     -2.11390         0.009155      0.009140     -0.008240
Li	      7.51796      6.20428     -4.22364        -0.006016     -0.007343      0.005524
Li	      9.24545      6.14840     -6.17585         0.002113      0.010779     -0.004727
Li	     11.72679     10.24245     -8.28519        -0.009881     -0.013308      0.008747
Mn	     14.26148     12.27206     -8.29063        -0.012394     -0.037482      0.029823
Mn	      2.53104      2.10759     -0.07271         0.024914      0.026782     -0.020584
Mn	      4.80488      6.15593     -2.09242         0.007627      0.049012     -0.041292
Mn	      9.54845     10.26925     -6.28678        -0.010745     -0.043324      0.036778
O	     12.03231      8.16990     -8.25488        -0.012869      0.012804     -0.013817
O	      7.18181      8.21475     -4.18380         0.000238      0.002717      0.000666
O	      9.75582      8.33845     -6.40030         0.017597      0.035827     -0.044366
O	      6.99411      4.01055     -4.01333        -0.013175     -0.036350      0.044847
O	      2.25200      4.06654      0.00994        -0.012356      0.013170     -0.017046
O	      4.72918      4.18072     -2.15953         0.011933     -0.014120      0.011699
O	     12.09666     12.37027     -8.39622         0.002130      0.000501     -0.000589
O	      2.40244     -0.02952      0.02781         0.001730     -0.008805      0.012579
