# total energy = -90.85119559 eV
 
CRYSTAL
PRIMVEC
0.001403 2.077458 2.078306 
8.437271 -4.171413 4.177790 
2.107374 2.091666 -4.169586 
PRIMCOORD
16 1
Li	      4.39354      1.96039     -1.97344         0.030919     -0.016244      0.025202
Li	      4.34264     -2.09252      2.10158         0.019957      0.028757     -0.034126
Li	      6.20215      0.00162      2.06949        -0.019836     -0.026769      0.036707
Li	      8.25887     -1.95656      1.97795        -0.031744      0.014625     -0.027154
Mn	     10.52438     -2.07118      0.00222        -0.017573     -0.021624      0.016816
Mn	      2.12819      2.07461      0.00158         0.017868      0.021126     -0.016960
Ni	      4.31339     -0.06108      0.05195         0.040499      0.008800     -0.001258
Ni	      6.23166     -2.02791      4.12103        -0.041380     -0.009558      0.000678
O	      2.10775      2.08747     -2.08692         0.000298     -0.000792     -0.000474
O	      6.32622      0.00057      0.00099         0.000434      0.001899      0.001546
O	      6.34936     -2.13933      2.15697         0.084336      0.046688     -0.058601
O	      8.63518      0.08958      2.00268         0.094480     -0.078357      0.069520
O	      8.57824     -2.14128      4.22826         0.055698     -0.008508      0.001872
O	      1.96692      0.05307     -0.05488        -0.055496      0.008507     -0.001979
O	      4.01881      1.99083      0.07934        -0.095028      0.077405     -0.071079
O	      4.19555      0.05025      2.01599        -0.083433     -0.045954      0.059292
