# total energy = -104.59539782 eV
 
CRYSTAL
PRIMVEC
-0.000013 2.125956 2.125358 
4.054668 -0.000121 0.000102 
-0.000566 8.621717 -8.619356 
PRIMCOORD
16 1
Li	      4.05431      4.46333     -0.21488        -0.000480     -0.005924      0.005086
Li	      4.05382      6.38618     -2.13908         0.000394      0.028058     -0.028867
Li	      2.02600      6.49946     -4.37643         0.000842     -0.027732      0.027351
Li	      2.02626      8.42266     -6.30113        -0.000426      0.005332     -0.003670
Mn	      4.05400     10.67382     -6.42062        -0.003286     -0.011593      0.009798
Mn	      2.02707      2.21668     -0.09089        -0.002276      0.008193     -0.010228
Mn	      2.02681      4.35914     -2.23659         0.000705      0.018914     -0.017579
Mn	      4.05342      8.52728     -4.27868         0.000179     -0.016487      0.010431
O	      4.05337      6.58511     -4.46204         0.001590     -0.021891      0.025463
O	      2.02608      8.57175     -4.32361        -0.000180      0.014547     -0.013921
O	      4.05404      4.31463     -2.19208         0.002476     -0.014105      0.014488
O	      2.02692      6.30185     -2.05342        -0.002354      0.017828     -0.020211
O	      4.05408      2.06581      0.06239         0.005205      0.019437     -0.019805
O	      2.02718      4.37716     -0.12809        -0.003003      0.020966     -0.018108
O	      4.05352      8.50947     -6.38700         0.001125     -0.016455      0.020284
O	      2.02710      0.07912     -0.07787        -0.000510     -0.019088      0.019487
