# total energy = -104.59006923 eV
 
CRYSTAL
PRIMVEC
-0.004399 2.272919 2.134912 
5.986515 -0.001275 -2.142648 
-1.982355 6.782165 -4.228501 
PRIMCOORD
16 1
Li	      3.88360      2.60256     -2.17098         0.004421      0.030183     -0.021878
Li	      2.10468      4.77816     -2.15973         0.015811      0.004450      0.000231
Li	      3.86772      4.49932     -4.02204         0.003247     -0.000658      0.002368
Li	      2.08846      6.57434     -4.17714        -0.000535     -0.000413      0.032607
Mn	      3.88695      8.88355     -4.32654        -0.019987     -0.015193     -0.011258
Mn	      2.11151      2.33429     -0.01632         0.014956     -0.007276     -0.001641
Mn	     -0.05252      4.68509      0.08419        -0.036423      0.008342     -0.005488
Mn	      0.05702      6.70234     -2.12358         0.012492      0.003669      0.013878
O	      4.08898      4.65769     -2.02251         0.014202     -0.027695      0.013454
O	      3.98492      2.02261     -0.15945        -0.015904     -0.004691     -0.001621
O	      1.89881      6.77802     -2.07722        -0.018546      0.022955     -0.013990
O	      1.92674      2.25766     -1.93624         0.000280     -0.021047      0.020762
O	      4.06681      6.70811     -4.54101         0.020819     -0.011059     -0.009165
O	     -0.07268      6.49216     -4.41277        -0.001355      0.025685     -0.022835
O	      0.01125      4.70970     -1.92037        -0.006218      0.005478      0.012049
O	      0.10334      2.28759      0.00631         0.012742     -0.012728     -0.007473
