# total energy = -104.71089332 eV
 
CRYSTAL
PRIMVEC
-0.000134 2.145273 2.146514 
5.949116 6.399452 -4.257069 
-3.996704 2.147533 -2.148494 
PRIMCOORD
16 1
Li	     -0.01225      6.43287     -2.14165        -0.012146      0.013300     -0.012324
Li	      3.98912      8.50694     -4.22227         0.015614     -0.012132      0.015852
Li	     -0.04865      4.32583     -0.03814        -0.014813      0.009872     -0.011140
Li	      3.95484      6.40294     -2.10917         0.009198     -0.013548      0.008530
Mn	      5.88104      6.40453     -4.25727         0.012353     -0.001532      0.005877
Mn	     -1.94067      4.28897     -2.14125        -0.011491      0.001225     -0.002466
Mn	      1.94814      6.41483     -4.26966         0.017187     -0.000431     -0.000980
Mn	      1.99451      4.27569     -2.13010        -0.020010     -0.002127     -0.004908
O	      1.97151      6.42198     -2.12182        -0.001804     -0.001168     -0.003791
O	      1.97918      4.26138      0.01553         0.011415      0.010282     -0.003758
O	     -0.02611      6.41959     -4.27325        -0.000964     -0.002364     -0.000951
O	      1.96200      8.56336     -4.28151        -0.010120     -0.006808      0.006454
O	     -2.08661      4.39454     -0.08752        -0.002242     -0.026601      0.029126
O	     -0.05037      4.23879     -2.09512        -0.050080      0.023189     -0.025926
O	      3.99116      6.45019     -4.30749         0.048542     -0.021693      0.025296
O	      0.07698      2.05503      0.10309         0.009361      0.030536     -0.024888
