# total energy = -105.04726755 eV
 
CRYSTAL
PRIMVEC
-0.000045 2.068926 2.069988 
8.670213 -4.219321 4.221004 
2.161969 2.124146 -4.195160 
PRIMCOORD
16 1
Li	      2.38672      0.02501      2.04229        -0.016159     -0.000806      0.002079
Li	      6.49475      2.04012      0.02860         0.004694      0.012931     -0.010037
Li	      6.41121     -0.01191      2.07913         0.003112     -0.025653      0.026295
Li	      8.45043     -2.08830      2.08916        -0.002799      0.014036     -0.014173
Mn	      8.66863     -4.21399      4.21394         0.014334     -0.008411      0.016200
Mn	      2.23565      2.10288     -0.03476        -0.017811      0.024872     -0.026476
Mn	      4.46621     -0.01499      0.01262        -0.017539     -0.004457      0.007504
Mn	      8.46438     -0.01082      0.01031         0.018125      0.003943     -0.001247
O	      8.71848     -2.21600      4.28593        -0.001416     -0.008043      0.008678
O	      4.38678      0.11221      1.95426         0.010225      0.018745     -0.015710
O	      6.38214     -0.00915      0.00740        -0.074298     -0.004520      0.008600
O	      6.43234     -2.25677      2.25885        -0.015111      0.001364     -0.009386
O	      8.58269      0.06785      2.00069         0.001779     -0.011896      0.009872
O	      2.18354      2.17321     -2.17543         0.007823      0.050435     -0.060922
O	      2.34922      0.01661     -0.01791         0.054300     -0.036803      0.031966
O	      4.39931      1.97389      0.09376         0.030742     -0.025736      0.026757
