# total energy = -103.45425196 eV
 
CRYSTAL
PRIMVEC
-0.000081 2.216496 -2.097427 
-0.000084 2.216704 2.097647 
16.101285 -0.000625 -0.000341 
PRIMCOORD
16 1
Li	      4.13855      2.21589     -2.09695        -0.009262     -0.001242     -0.000555
Li	      8.17583      4.43207      0.00030         0.009717     -0.000937     -0.000982
Li	      9.93496      2.21501     -0.00030        -0.009462      0.000799      0.000393
Li	     13.97504      2.21460     -0.00054         0.007912     -0.000570      0.001375
Mn	     15.93180      4.43165      0.00012         0.012089     -0.000804     -0.001625
Mn	      2.17786      2.21539      0.00031        -0.007088      0.001536      0.000267
Mn	      6.10694      2.21557      0.00109         0.054565      0.000613     -0.004893
Mn	     12.00400      4.43136     -0.00068        -0.063805     -0.000350      0.002637
O	     12.04767      2.21453     -0.00060         0.008198      0.001571     -0.000148
O	     14.02281      4.43134     -0.00043        -0.079511      0.000525     -0.000369
O	      7.93152      2.21622      0.00006        -0.076207     -0.002111      0.001982
O	     10.18066      4.43139     -0.00018         0.080907     -0.000533     -0.000830
O	      4.09138      2.21604      0.00060         0.092500     -0.001061      0.001013
O	      6.06459      4.43186      0.00077        -0.006378      0.002729      0.000991
O	      0.07017      2.21563      0.00028        -0.005327      0.000283     -0.000288
O	      1.93001      4.43213      0.00033        -0.008848     -0.000448      0.001032
