# total energy = -105.43342046 eV
 
CRYSTAL
PRIMVEC
2.215867 4.102298 2.090357 
4.391058 -2.020563 -2.109574 
0.036775 4.087318 -4.190543 
PRIMCOORD
16 1
Li	      2.35634      0.01890     -2.15717         0.001946      0.000029      0.007054
Li	      6.43646      4.09852     -2.08571        -0.000602     -0.001027      0.010028
Li	      2.37968      4.13562     -2.05510        -0.003167     -0.006671      0.006402
Li	      4.41978      4.09356     -4.16902         0.011797     -0.003012     -0.011429
Mn	      4.43381      2.09240     -6.27157        -0.004683      0.012617      0.001345
Mn	      2.20630      2.03693     -0.05286         0.037588      0.011252     -0.014930
Mn	      4.40779      2.08611     -2.12015        -0.011024      0.004049      0.002091
Mn	      2.21339      2.03822     -4.16842        -0.005508      0.001053     -0.007755
O	      2.42432      2.04371     -1.98473        -0.017593     -0.004292      0.010737
O	      4.41422      4.21415     -2.12105         0.008751      0.054774      0.002396
O	      2.05820      4.10808     -4.16639         0.015292     -0.022079      0.007490
O	      4.53778      2.07252     -0.11768         0.008299     -0.002599     -0.028011
O	      4.42606     -0.08959     -2.09486        -0.041676     -0.027628     -0.000280
O	      1.97814      4.01164     -0.07907         0.033033     -0.004252     -0.020709
O	      4.18892      2.06416     -4.09435         0.001434     -0.007282      0.037396
O	      2.42355      6.22951     -2.22844        -0.033889     -0.004931     -0.001827
