# total energy = -104.93383158 eV
 
CRYSTAL
PRIMVEC
0.000058 2.216002 2.216725 
4.089751 -4.376711 4.378107 
4.019868 4.344707 -4.346181 
PRIMCOORD
16 1
Li	      4.22510      1.94082      2.23519        -0.005949      0.011370     -0.007951
Li	      6.06498      2.05298      0.15706         0.004628      0.000300     -0.008931
Li	      4.08594      0.13360      4.29115        -0.006218     -0.005803     -0.000771
Li	      5.92614     -0.00401      1.96258         0.004778     -0.008146      0.012559
Mn	      8.02112      2.15740      2.17969        -0.042721      0.002003      0.015043
Mn	      2.01814      2.31914      0.10049        -0.022653      0.001759     -0.002367
Mn	      4.04299      2.23906     -2.03649         0.026361      0.000493      0.001762
Mn	      2.13006     -0.05869      2.17948         0.034481      0.008194      0.006301
O	      3.96937      2.50568      0.14543        -0.009813      0.008282      0.009333
O	      3.97337     -0.03975      2.16268        -0.009436     -0.004602     -0.001332
O	      6.17735      2.13955      2.19878         0.014214      0.001473     -0.003619
O	      4.17070     -2.19352      4.55989         0.024233      0.003822     -0.004017
O	      2.09197      2.28439     -1.84964         0.006173      0.009940      0.015834
O	      4.11863      4.21293     -2.34192         0.003627     -0.011579     -0.016104
O	      1.94295      2.01451      2.07537        -0.003729     -0.012711     -0.018821
O	      5.97987      2.31978     -2.17363        -0.017978     -0.004794      0.003083
