# total energy = -89.00330382 eV
 
CRYSTAL
PRIMVEC
0.000006 2.114062 -2.114094 
-0.000190 2.114068 2.114100 
16.297034 -0.000726 -0.000711 
PRIMCOORD
16 1
Li	      4.24353      2.11328     -2.11334         0.018292      0.000948     -0.000879
Li	      8.20735      0.00163     -0.00009         0.122741     -0.002158     -0.000345
Li	     10.13000      2.11443     -0.00093        -0.116067     -0.001536      0.000976
Li	     14.09562      2.11290     -0.00077        -0.012826      0.000757      0.000029
Mn	     16.13372      4.22624     -0.00043        -0.109208     -0.000170      0.000197
Mn	      2.20584      2.11283      0.00061         0.101848      0.000968     -0.000774
Ni	      6.15786      2.11463      0.00044         0.001162      0.000215      0.000186
Ni	     12.18126      2.11346      2.11329        -0.014393     -0.000217     -0.000254
O	     14.30041      4.22674     -0.00068         0.203773     -0.002327      0.000131
O	      0.11493      2.11279      0.00034        -0.020479      0.000374     -0.000545
O	     10.25543      0.00019     -0.00095        -0.103446     -0.000279      0.000553
O	     12.20194      2.11340     -0.00088         0.126429      0.000710      0.000617
O	      6.13723      0.00070      0.00050        -0.130622      0.001313      0.001213
O	      8.08366      2.11574      0.00004         0.103341     -0.000497     -0.000406
O	      1.92759      4.22678      0.00056         0.027837      0.001432     -0.000459
O	      4.03887      2.11313      0.00077        -0.198381      0.000467     -0.000241
