# total energy = -104.94844523 eV
 
CRYSTAL
PRIMVEC
4.687484 -0.000010 -0.000019 
-0.000010 4.085730 -4.012591 
-0.000046 6.059367 1.932172 
PRIMCOORD
16 1
Li	      0.00173      8.09176     -0.12967         0.000668     -0.010383     -0.016865
Li	      2.34077      4.04170     -2.05841        -0.001129     -0.014349     -0.017182
Li	      4.68403      6.12223     -2.01289        -0.001299      0.015818      0.017056
Li	      2.34541      8.13192     -2.00938         0.000659      0.008748      0.016562
Mn	      4.68693      4.08879     -3.93760        -0.000177     -0.030611     -0.004641
Mn	      2.34325      2.06598      0.01631        -0.000398     -0.015884     -0.022628
Mn	      4.68697      4.01242     -0.07503        -0.000258      0.016162      0.023745
Mn	      2.34306      6.07525     -0.13350         0.000210      0.031302      0.003056
O	      4.68736      2.01843      0.00201         0.000529      0.000447     -0.008828
O	      2.34363      4.05997     -0.06092         0.000300      0.001079      0.010271
O	      0.00196      4.04327     -2.01478         0.000091      0.007238     -0.011974
O	      2.34594      6.12062     -2.05644        -0.000097     -0.005167      0.013825
O	      4.68727      5.98366      0.02141         0.000240      0.014908     -0.005259
O	      2.34255      7.99350      0.01369        -0.000240      0.012522     -0.016105
O	      4.68636      8.22963     -2.15293         0.000581     -0.010929      0.017922
O	      2.34357      0.09511     -0.07948         0.000319     -0.020900      0.001044
