# total energy = -105.01761169 eV
 
CRYSTAL
PRIMVEC
4.072536 -0.000213 -0.000161 
0.000167 0.000053 -4.012403 
2.035873 9.262166 -2.006395 
PRIMCOORD
16 1
Li	      2.03662      0.37552     -2.00708         0.000169     -0.007649      0.004433
Li	      4.07343      2.55191     -2.00708         0.002100     -0.005585     -0.001816
Li	      2.03768      4.39169     -2.00689        -0.002699      0.004386      0.001632
Li	      4.07376      6.56826     -2.00731         0.001377      0.006807      0.001741
Mn	      2.03610      9.24853     -2.00722         0.002843     -0.020289     -0.001862
Mn	      2.03716      2.37609     -4.01313         0.004618      0.014409     -0.003607
Mn	      4.07392      4.56761     -4.01323        -0.004210     -0.015875     -0.001157
Mn	      2.03768      6.95742     -4.01350        -0.000689      0.019705     -0.000595
O	      2.03713      2.35775     -2.00706        -0.000120      0.023345      0.000074
O	      4.07368      4.58570     -2.00697         0.003671     -0.022900     -0.002945
O	      2.03672      0.42484     -4.01325         0.000419      0.038263      0.001996
O	      4.07348      2.51742     -4.01337         0.001911      0.037444      0.000915
O	      2.03774      7.11157     -2.00724        -0.002076     -0.050321      0.000334
O	      2.03773      4.42628     -4.01294        -0.005204     -0.035334     -0.003005
O	      4.07385      6.51897     -4.01354        -0.001391     -0.037986      0.001099
O	      2.03634      9.09431     -4.01349        -0.000719      0.051581      0.002761
