# total energy = -104.73370341 eV
 
CRYSTAL
PRIMVEC
-0.003980 2.167905 2.097295 
8.214904 2.200676 -2.145065 
0.007259 4.398956 -4.259318 
PRIMCOORD
16 1
Li	      6.13353      4.42329     -2.20632        -0.007746      0.005334     -0.010291
Li	      2.10369      4.43527     -2.17087         0.001030     -0.003626      0.010782
Li	      4.31472      6.45387     -2.13244        -0.005712     -0.034137     -0.010850
Li	      6.12796      6.56154     -4.21136        -0.009187     -0.013553      0.002236
Mn	      8.12375      8.71194     -4.28600        -0.016624      0.009597      0.001121
Mn	      2.05905      2.15067     -0.03584         0.022265     -0.000949      0.003221
Mn	      4.21498      2.26329     -2.17636        -0.014341      0.004618      0.001200
Mn	      8.10155      4.45383     -4.26760        -0.018780      0.002500      0.003517
O	      4.10642      4.24745     -2.05207         0.009536      0.002855      0.003989
O	      6.25308      4.39344     -4.25497         0.047282      0.004804     -0.010716
O	      4.02602      2.39938     -0.15193        -0.005443      0.007025      0.008352
O	      6.24421      2.18379     -2.11660         0.054875      0.005628      0.001302
O	      0.03936      2.01945     -0.11310        -0.011898     -0.026600     -0.010300
O	      1.91193      2.22658     -1.98284        -0.018439      0.014448     -0.005561
O	      0.01355      4.50101     -2.01078        -0.002760      0.020643      0.009175
O	      1.97042      6.52240     -2.35092        -0.024059      0.001414      0.002824
