# total energy = -104.76067312 eV
 
CRYSTAL
PRIMVEC
0.005636 2.264359 2.117670 
3.994085 -4.506122 4.227270 
3.992669 4.518513 -4.214497 
PRIMCOORD
16 1
Li	      2.06371     -0.22990      2.20498        -0.011277     -0.015828      0.008101
Li	      6.05442      2.47439     -0.00741         0.012250      0.024926     -0.003545
Li	      3.89181     -2.13451      2.10186         0.005269      0.025450      0.008291
Li	      5.94450     -0.03880      2.02920         0.012009     -0.003026      0.004843
Mn	      7.92435      2.26489      2.13820         0.007177     -0.019179      0.008305
Mn	      1.97192      2.36515      0.03420         0.001444      0.014261     -0.024664
Mn	      4.06280      2.31604     -2.10850         0.033313      0.009250     -0.011050
Mn	      4.06576      2.12858      2.15879        -0.019261     -0.005638     -0.016555
O	      3.95469      2.49918      0.15320         0.006281     -0.000616      0.030304
O	      3.98084     -0.00213      1.92201         0.015139     -0.012041     -0.003028
O	      6.00314      2.12444      2.07135         0.006497     -0.017586      0.000907
O	      4.04171     -2.28008      4.38297        -0.024768     -0.000659     -0.005943
O	      2.08124      2.32315     -1.90597        -0.006084      0.005546     -0.016570
O	      4.01071      4.34058     -2.24694        -0.017445     -0.013766     -0.024933
O	      2.00150      2.32705      1.99183        -0.011798     -0.003480      0.032810
O	      5.91517      4.52781      0.01137        -0.008747      0.012386      0.012728
