# total energy = -104.92320400 eV
 
CRYSTAL
PRIMVEC
4.109371 -0.000041 0.000022 
-0.000035 4.413233 -4.121380 
0.000006 6.620240 2.060122 
PRIMCOORD
16 1
Li	      2.05410      6.69324     -0.06392         0.001337      0.030165     -0.009929
Li	      2.05415      4.56275     -2.07224        -0.000137      0.002460      0.010430
Li	      4.10882      6.61842     -1.99597         0.001329     -0.012043      0.023910
Li	      2.05422      8.58850     -2.05451        -0.000665     -0.004876     -0.004949
Mn	      4.10881      4.37592     -4.07824        -0.000041     -0.022301     -0.017369
Mn	      2.05423      2.22346      0.06764        -0.000465      0.040671     -0.048394
Mn	      4.10888      4.48835     -0.02416        -0.000260     -0.039519     -0.011465
Mn	      4.10887      8.79902     -0.07996         0.000095     -0.000932     -0.015724
O	      4.10892      2.26077     -0.10722        -0.000678     -0.068998      0.054145
O	      2.05419      4.24188      0.00759         0.000222     -0.059749      0.002324
O	      4.10881      4.31772     -2.14234         0.000670      0.033940     -0.028876
O	      2.05422      6.62817     -2.18522        -0.000342     -0.012064     -0.033431
O	      4.10886      6.57343      0.12127        -0.000701      0.046242      0.035264
O	      2.05419      2.15387     -1.96515        -0.000345     -0.006618      0.021588
O	      4.10889      8.88919     -2.00655        -0.000149     -0.012109      0.024588
O	      2.05418      0.25662      0.02299         0.000129      0.085730     -0.002113
