# total energy = -104.29309140 eV
 
CRYSTAL
PRIMVEC
4.313792 -0.000016 -0.000516 
0.000516 0.000028 -4.111966 
2.157120 8.326814 -2.056273 
PRIMCOORD
16 1
Li	      2.15812      6.25240     -4.11150        -0.000763     -0.018945     -0.000159
Li	      4.31501      2.16553     -2.05640        -0.000060     -0.030399      0.002118
Li	      2.15721      4.37739     -2.05608        -0.000294      0.051006      0.003415
Li	      4.31327      6.13320     -2.05532         0.000690      0.037873     -0.000282
Mn	      2.15762      8.24619     -2.05589         0.001745     -0.071876      0.002747
Mn	      2.15809      2.11978     -4.11171         0.000852     -0.065289      0.002332
Mn	      4.31478      4.26703     -4.11153        -0.000424      0.012564     -0.002047
Mn	      4.31474      8.19311     -4.11199         0.000134      0.012793     -0.000117
O	      2.15774      1.86903     -2.05568         0.000705      0.023092     -0.003799
O	      4.31442      4.17890     -2.05553         0.001678     -0.025318     -0.002024
O	      2.15779      0.10944     -4.11184         0.001989      0.028895      0.001811
O	      4.31498      1.99409     -4.11201        -0.003128     -0.011425      0.000784
O	      2.15785      6.42669     -2.05571         0.000600     -0.031671     -0.001909
O	      2.15800      4.01901     -4.11121        -0.002491      0.069989     -0.004621
O	      4.31466      6.29665     -4.11154         0.000805      0.019556      0.000132
O	      2.15792      8.29621     -4.11181        -0.002036     -0.000844      0.001618
