# total energy = -103.66002172 eV
 
CRYSTAL
PRIMVEC
-0.000090 2.075036 2.083979 
8.545311 2.161833 -2.171313 
0.000610 4.323139 -4.341445 
PRIMCOORD
16 1
Li	      6.40739      4.41325     -2.34855         0.000894      0.035466     -0.037471
Li	      8.26261      4.32662     -4.34125        -0.019787     -0.002203      0.002736
Li	      4.55148      4.32435     -4.34258         0.020184      0.000942     -0.000082
Li	      6.40580      6.31212     -4.25167        -0.000125     -0.033566      0.037235
Mn	      8.33357      2.16297     -2.17190        -0.035199      0.009272     -0.005300
Mn	      2.13617      2.11969     -0.04374        -0.003989     -0.001266      0.000305
Mn	      4.48184      2.16331     -2.17116         0.035795      0.005838     -0.009938
Mn	      2.13619      4.28175     -2.21514         0.003869     -0.000871      0.000887
O	      4.25129      4.12763     -2.05471         0.038798     -0.015985      0.024025
O	      6.40742      4.32513     -4.34208         0.000733      0.000365     -0.002307
O	      4.25304      2.27485     -0.20457         0.036558      0.008846     -0.010797
O	      6.40545      2.16328     -2.17193         0.000980     -0.002519      0.000538
O	      0.01870      1.96567      0.11578        -0.033791     -0.015897      0.017186
O	      2.07632      2.16266     -2.17086         0.016375      0.011893     -0.011995
O	      0.02140      4.43514     -2.37484        -0.042768      0.012103     -0.017701
O	      2.20215      4.32526     -4.34265        -0.018526     -0.012417      0.012680
