# total energy = -104.42681137 eV
 
CRYSTAL
PRIMVEC
-0.020606 2.093530 2.209844 
4.191886 -4.250539 4.442977 
4.200029 4.214983 -4.489378 
PRIMCOORD
16 1
Li	      2.33173     -0.10346      2.01968        -0.015343     -0.029577     -0.005241
Li	      4.16031     -0.26522      0.23998         0.002485     -0.006050     -0.017332
Li	      4.22377      0.10094      4.07008         0.008972     -0.012130      0.015245
Li	      6.04798     -0.13317      2.25650         0.025941     -0.011428     -0.018113
Mn	      0.04796     -0.01330      0.03479        -0.020505      0.011892      0.014712
Mn	      2.07686      2.14803      0.02680         0.019372     -0.002335      0.003196
Mn	      4.12766      4.19568     -0.07266         0.003735      0.022964      0.005241
Mn	      6.28232      2.09838     -0.01921        -0.002444     -0.003719      0.018455
O	      4.07082      2.24287     -0.06404        -0.006636      0.001576      0.011659
O	      4.18434     -0.07866      2.16696        -0.005277     -0.006722     -0.005414
O	      6.42992      2.21045      1.99648         0.017866      0.025042     -0.001795
O	      4.29206     -2.04475      4.73169         0.003347     -0.002125      0.003333
O	      2.18965      4.09856     -0.08520        -0.010531      0.000215     -0.000495
O	      4.17862      4.05689     -2.46287         0.000038      0.002526     -0.017357
O	      1.98893      0.18195      0.05690        -0.011351      0.009492     -0.000812
O	      6.12330      1.98588     -2.04054        -0.009668      0.000379     -0.005282
