# total energy = -91.89850287 eV
 
CRYSTAL
PRIMVEC
4.084671 0.000118 -0.000155 
-2.042396 4.195722 -6.370269 
-2.042273 4.138660 2.084871 
PRIMCOORD
16 1
Li	     -0.00050      4.25515     -0.23656         0.001068      0.021090     -0.028524
Li	     -2.04199      4.21564     -2.18353         0.001973     -0.000937      0.022670
Li	     -0.00036      6.19213     -2.12220         0.002815      0.000345     -0.020848
Li	     -2.04205      6.15254     -4.06932         0.001483     -0.018668      0.028852
Mn	      0.00023      8.28445     -4.27991        -0.006069     -0.133711      0.017036
Mn	      2.04208      2.12329     -0.02615         0.004883      0.134307     -0.020214
Ni	     -0.00043      2.13343     -2.20962         0.000129     -0.082764      0.048142
Ni	      0.00035      4.13579     -4.18110         0.000842      0.079976     -0.047991
O	     -2.04231      6.27995     -2.08819        -0.012858     -0.124384     -0.167181
O	      2.04233      4.05147      0.12796        -0.000147     -0.020336      0.016513
O	      0.00021      6.35640     -4.43398        -0.001531      0.019141     -0.019381
O	      0.00011      4.32276     -6.28747        -0.003451      0.089986     -0.105736
O	      2.04247      4.17710     -4.45072        -0.003791     -0.006929     -0.091743
O	      2.04214      2.09196     -1.94022         0.006565      0.006633      0.096674
O	      0.00025      4.12815     -2.21776         0.007014      0.122802      0.166670
O	     -0.00024      1.94611     -0.10305         0.001076     -0.086552      0.105060
