# total energy = -104.05260175 eV
 
CRYSTAL
PRIMVEC
4.258202 -0.000170 -0.000154 
0.000154 -0.000118 -4.261593 
2.128807 8.284152 -2.130712 
PRIMCOORD
16 1
Li	      2.12833      6.21451     -4.26163         0.000762      0.000358      0.000148
Li	      4.25757      8.14499     -4.26123        -0.001381     -0.033917      0.001925
Li	      2.12951      4.28254     -2.13033         0.001040      0.035648     -0.002649
Li	      4.25706      6.21337     -2.13054         0.002084     -0.000393      0.000427
Mn	      2.12838      8.15222     -2.13039         0.001650     -0.055647     -0.000532
Mn	      2.12938      2.07247     -4.26104        -0.000426     -0.008412     -0.000566
Mn	      4.25849      4.27586     -4.26149        -0.000586      0.053772      0.001441
Mn	      4.25866      2.07208     -2.13055        -0.000824     -0.005992      0.000466
O	      2.12969      2.07264     -2.13019        -0.001906     -0.002787     -0.001241
O	      4.25913      4.02500     -2.13087        -0.004684      0.051097      0.002188
O	      2.12864      0.11862     -4.26060         0.003561     -0.044021     -0.005117
O	      4.25845      2.07176     -4.26135         0.000547      0.001320      0.000071
O	      2.12857      6.35623     -2.13057         0.002331      0.040355     -0.001977
O	      2.12967      4.02558     -4.26152        -0.001745      0.050022      0.002655
O	      4.25823      6.07156     -4.26172        -0.003471     -0.037437      0.003600
O	      4.25795      0.11850     -2.13041         0.003047     -0.043966     -0.000841
