# total energy = -104.27695275 eV
 
CRYSTAL
PRIMVEC
0.000119 2.241649 2.114059 
8.172801 2.230680 -2.101308 
-0.000360 4.461434 -4.203856 
PRIMCOORD
16 1
Li	      4.08496      4.47239      0.01235        -0.001951      0.008262      0.001562
Li	      2.29419      4.41414     -2.14515         0.000795     -0.010782     -0.021851
Li	      4.08418      4.47448     -4.19901         0.006512     -0.006487     -0.004512
Li	      5.87793      6.65537     -4.24596        -0.005503     -0.020205     -0.018319
Mn	      8.17121      8.80380     -4.20200        -0.003703      0.003539      0.008072
Mn	      2.15317      2.26075      0.02253         0.054641      0.007015      0.006715
Mn	      6.01606      4.49133     -2.07836        -0.058613      0.005122      0.005091
Mn	      8.17104      4.55545     -4.20862         0.002923     -0.005294     -0.001432
O	      4.20342      4.46320     -2.08779         0.044029     -0.000014      0.003968
O	      6.25018      4.49785     -4.06792         0.012059      0.028705     -0.010391
O	      3.96623      2.23373      0.01423        -0.039930     -0.003891      0.001649
O	      6.25261      4.44870     -0.08823         0.014702     -0.014583      0.002354
O	      8.17102      4.66971     -1.98474         0.008944      0.023196      0.034099
O	      1.92015      2.27015     -1.96903        -0.020576      0.012901      0.007485
O	      8.17027      6.55689     -4.32949         0.001309     -0.011432     -0.015791
O	      1.91668      6.68401     -2.19059        -0.015639     -0.016052      0.001300
