# total energy = -105.22522109 eV
 
CRYSTAL
PRIMVEC
-2.165542 4.192105 -2.101548 
2.157540 4.190378 2.106093 
2.180537 -0.004870 -6.330608 
PRIMCOORD
16 1
Li	     -0.01898      4.12795     -4.11083         0.013407      0.001552      0.015083
Li	      0.10317      2.07388     -2.22551        -0.001154      0.000647      0.016909
Li	      2.32829      4.25575     -2.04570         0.009275      0.001070      0.027014
Li	      2.02170      2.08926     -4.12177         0.009416      0.005199      0.009119
Mn	      4.30437      4.19571     -4.25723        -0.005101     -0.000967     -0.001716
Mn	      0.09668      6.27504     -2.11294        -0.008674     -0.005293     -0.002801
Mn	      2.15265      6.30951     -4.14885        -0.000588     -0.006526     -0.010397
Mn	     -0.03871      4.19646     -0.03196        -0.005076      0.003572     -0.001929
O	      0.19099      6.25981     -4.06282         0.016316      0.006676      0.005140
O	     -0.20897      4.29478     -2.04492        -0.014621     -0.005554      0.001536
O	      0.04529      2.08250     -4.17858         0.001656      0.006185      0.014243
O	      2.00109      2.22534     -6.37810        -0.027138      0.012729     -0.000617
O	      2.17576      4.07251      0.11885         0.010963      0.010636      0.002518
O	     -0.04361      4.08841     -6.51484         0.001047      0.003975     -0.015582
O	     -0.05146      6.16605     -0.12886         0.001510     -0.023230     -0.036063
O	      2.32340      4.29736     -4.35080        -0.001239     -0.010672     -0.022458
