# total energy = -105.17581834 eV
 
CRYSTAL
PRIMVEC
4.681463 -0.000004 -0.000032 
-0.000018 4.040992 -4.040903 
0.000088 6.043941 2.002704 
PRIMCOORD
16 1
Li	      0.00092      4.03043     -0.00837         0.000093      0.001288     -0.000631
Li	      2.34032      4.03942     -2.02064         0.000711     -0.013885     -0.012883
Li	      4.67778      6.05087     -2.02881         0.001317      0.000950     -0.000970
Li	      2.33912      8.06430     -2.03687        -0.000808      0.011432      0.012329
Mn	      4.68150     10.06284     -2.01747        -0.000281     -0.004916      0.011155
Mn	      2.34067      2.08287      0.06380        -0.000509      0.002685      0.005536
Mn	      2.34055      5.97965     -0.08071         0.000000     -0.010689     -0.003477
Mn	      4.68144      8.08334     -0.03809         0.000080      0.014127     -0.002997
O	      4.68136      1.95890     -0.05972         0.000137     -0.000630     -0.003983
O	      2.34008      4.03089     -0.00843         0.000092      0.006329     -0.001186
O	      4.68106      3.95592     -2.10406         0.001784      0.003817      0.009047
O	      2.34307      6.05177     -2.02900         0.000119     -0.001045      0.003122
O	      0.00025      6.10263      0.04274        -0.000605      0.000630      0.000202
O	      2.34087      7.96632      0.07991        -0.000227      0.015081     -0.018703
O	      0.00154      8.14670     -1.95405        -0.002170     -0.009462     -0.009804
O	      2.34078      6.13989      1.90618         0.000269     -0.015714      0.013242
