# total energy = -103.49978820 eV
 
CRYSTAL
PRIMVEC
4.212121 -0.000190 -0.000461 
0.000457 -0.000271 -4.220704 
2.105944 8.482185 -2.110079 
PRIMCOORD
16 1
Li	      4.21217      4.23924     -4.22323         0.000734      0.001850      0.003084
Li	      4.21290      2.36993     -2.11290        -0.000848     -0.025895      0.001942
Li	      2.10331      4.24080     -2.11170         0.005397     -0.000718      0.001076
Li	      4.21156      6.11258     -2.11062         0.001002      0.023649     -0.002581
Mn	      2.10705      8.48205     -2.11062         0.001454      0.005745     -0.000286
Mn	      2.10773      2.27653     -4.22256        -0.000883     -0.065241      0.000177
Mn	      2.10629      6.20436     -4.22067         0.003879      0.075333     -0.001421
Mn	      2.10748      0.00023     -2.11121        -0.002084      0.001790     -0.002842
O	      2.10793      1.95181     -2.11231        -0.003457      0.014010      0.004062
O	      4.21162      4.24121     -2.11213         0.001653      0.000610     -0.000013
O	      2.10771      0.12852     -4.22148        -0.000638      0.041431     -0.002103
O	      4.21417      1.95348     -4.22303        -0.005563      0.006915      0.003830
O	      2.10614      6.53088     -2.10998         0.001853     -0.016776     -0.003844
O	      2.10588      4.24014     -4.22262         0.000826     -0.006425      0.002373
O	      4.21286      6.52929     -4.22056        -0.000190     -0.012800     -0.002832
O	      2.10762      8.35524     -4.22088        -0.003137     -0.043478     -0.000622
