# total energy = -104.56657035 eV
 
CRYSTAL
PRIMVEC
0.016554 2.237043 2.092377 
4.177358 -2.232582 2.119549 
4.093226 6.675977 -6.208311 
PRIMCOORD
16 1
Li	      6.17261      4.23950     -1.98109        -0.006397     -0.002408     -0.010659
Li	      4.32271      2.28771      2.05686         0.022228      0.001925     -0.012315
Li	      6.23578      2.36800     -0.00980         0.004380      0.017345     -0.016665
Li	      3.89581      4.52745     -4.03651        -0.013883     -0.000054      0.011072
Mn	      4.08668      8.82036     -4.09249        -0.018923      0.001027      0.007583
Mn	      2.09686      2.31819      0.00624        -0.012999     -0.019202      0.010365
Mn	      4.19072      2.28694     -2.08428         0.031908     -0.017421      0.002489
Mn	      6.20328      6.61504     -4.06994        -0.001986     -0.009032     -0.002644
O	      4.11547      4.28929     -1.94542        -0.010850      0.019713     -0.005743
O	      4.06521      2.35786     -0.02009        -0.016440     -0.006272     -0.001873
O	      6.05842      4.43404      0.05895        -0.039772      0.001382     -0.000232
O	      4.28071      0.05109      2.23005         0.048037      0.006194      0.004306
O	      2.15606      2.22432     -1.94086         0.008019      0.004969      0.025732
O	      4.12109      6.60100     -4.26122        -0.011278      0.010337     -0.016009
O	      2.02896      2.12585      2.02538        -0.023912      0.004021     -0.038206
O	      6.34666      4.58550     -4.10838         0.041867     -0.012524      0.042799
