# total energy = -104.02266074 eV
 
CRYSTAL
PRIMVEC
-0.019890 2.141260 2.220093 
4.088637 -2.176267 2.213938 
4.022522 6.378897 -6.653956 
PRIMCOORD
16 1
Li	      6.07473      4.22411     -2.21766        -0.000794     -0.001226      0.000998
Li	      5.96971      6.16941     -4.21074        -0.011595      0.014425      0.004817
Li	      6.18013      2.27852     -0.22255         0.008451     -0.014427     -0.005986
Li	      4.03926      4.24370     -4.43229         0.001311     -0.001101      0.000744
Mn	      8.02233      4.15631     -4.28983        -0.028499     -0.010986     -0.000788
Mn	      2.01935      2.12244      0.00295         0.003986     -0.001116      0.000836
Mn	      4.12756      4.29120     -0.14449         0.033265      0.010406      0.001693
Mn	      4.07374     -0.03639     -0.00012        -0.000976      0.002143     -0.000351
O	      4.02786      4.08045     -2.12361         0.004379     -0.012459     -0.012088
O	      3.99257      2.12084      0.02119        -0.013172      0.036240     -0.023119
O	      5.97971      2.07840     -2.20306        -0.050857      0.012406     -0.028522
O	      4.13509     -0.05221      2.19880         0.009909     -0.036611      0.021421
O	      2.08992      4.06780     -0.01553         0.075267     -0.012672      0.008049
O	      4.03336      6.54306     -4.52497        -0.004072      0.011719      0.011801
O	      1.94896      0.17691      0.02126        -0.076108      0.014965     -0.007049
O	      6.17028      6.36938     -2.23052         0.049507     -0.011706      0.027542
