# total energy = -105.15495920 eV
 
CRYSTAL
PRIMVEC
0.019335 2.249014 2.124508 
3.980647 -2.213680 2.125286 
3.942492 6.679320 -6.267967 
PRIMCOORD
16 1
Li	      5.95246      4.47324     -2.04538        -0.000228     -0.000456     -0.000261
Li	      5.95493      6.61457     -4.18466         0.007528      0.000846     -0.015305
Li	      3.99091      2.25825      2.15084         0.001997      0.000876     -0.001220
Li	      5.95005      2.33240      0.09421        -0.006938     -0.002979      0.015985
Mn	      7.86073      6.66513     -2.07218        -0.015833     -0.005876     -0.009565
Mn	      1.99058      2.23998      0.02619         0.015943      0.005349     -0.015364
Mn	      4.04454      2.28096     -2.01909        -0.000232      0.004296      0.017303
Mn	      3.97190      6.70481     -2.04588        -0.003348     -0.005868      0.002205
O	      3.98348      4.70781     -1.86324         0.003308      0.018029     -0.009782
O	      3.94385      2.26650     -0.04831         0.004886     -0.010533     -0.000675
O	      5.97430      2.23905     -2.00396         0.032218      0.001320      0.012779
O	      4.01921     -0.00018      2.22526        -0.021345      0.011654     -0.000583
O	      2.07893      2.28510     -1.92006         0.013232     -0.001330     -0.012730
O	      3.94076      6.45217     -4.35296        -0.001777     -0.012903      0.005434
O	      1.90244      2.19499      1.97142        -0.006711     -0.002110      0.025245
O	      5.93040      6.70732     -2.08713        -0.022698     -0.000317     -0.013466
