# total energy = -104.02905196 eV
 
CRYSTAL
PRIMVEC
-0.000001 2.134785 2.134405 
4.163403 -2.195503 2.195140 
4.044154 6.463737 -6.462565 
PRIMCOORD
16 1
Li	      4.15447      2.01749     -2.01654         0.011170      0.001880     -0.001720
Li	      6.02150      4.08195     -1.94510        -0.015058      0.005065     -0.006960
Li	      4.26735      0.15338     -0.15207         0.015885     -0.006780      0.005493
Li	      6.13401      2.21779     -0.08154        -0.011673     -0.002630      0.002593
Mn	      8.10849      4.21646     -4.21485         0.018772     -0.011742      0.012456
Mn	      2.14642      2.18352     -0.04819         0.008341      0.001717      0.001655
Mn	      2.18084      0.01718      2.11804        -0.019300      0.012879     -0.013640
Mn	      3.97900      4.24599     -4.24410        -0.007266     -0.001664     -0.000383
O	      4.06974      4.44504     -2.30861        -0.010857      0.024533     -0.022787
O	      4.01073      2.13899     -0.00368        -0.035365     -0.002817      0.003773
O	      6.27804      2.09529     -2.09393         0.036314      0.004196     -0.002191
O	      4.27062     -0.15963      2.29502         0.070203      0.010856     -0.013729
O	      2.05549      1.98456     -1.98346         0.010026     -0.024107      0.020560
O	      4.01687      6.38280     -4.24672        -0.045072     -0.041140      0.042927
O	      2.10899      0.04629     -0.04574         0.044218      0.041470     -0.040592
O	      6.01856      4.39338     -4.39162        -0.070338     -0.011715      0.012546
