# total energy = -92.35878824 eV
 
CRYSTAL
PRIMVEC
2.064132 4.112502 2.011385 
4.147403 -2.055969 -2.031545 
-0.009005 4.181279 -4.149632 
PRIMCOORD
16 1
Li	      4.07866      4.16544     -0.15551        -0.019199      0.003821      0.019713
Li	      6.11936      4.18612     -2.11184         0.015286      0.004928      0.001015
Li	      2.15264      4.11291     -2.07975        -0.013716     -0.004225     -0.000815
Li	      4.19324      4.13352     -4.03618         0.018063     -0.005225     -0.019587
Mn	      4.11990      2.14387     -6.14624         0.045343      0.011873      0.018106
Mn	      2.08785      2.04230     -0.05667        -0.044900     -0.011645     -0.018614
Ni	      4.13380      2.14951     -2.12241         0.032854     -0.032698     -0.038644
Ni	      4.13807      6.14936     -2.06915        -0.032828      0.032821      0.038557
O	      4.13627      4.14944     -2.09577        -0.002066     -0.000498     -0.000514
O	      4.07981      2.13569     -4.23142         0.130993      0.000757     -0.152820
O	      4.14011      2.05889     -0.02089         0.003237     -0.000926     -0.000961
O	      4.31172     -0.08147     -2.07795         0.033645     -0.084909      0.016901
O	      2.00396      3.98519      0.06295         0.115613     -0.039322      0.032452
O	      2.12810      2.05047     -1.97153        -0.132345      0.000456      0.151922
O	      2.12028      6.36936     -2.22296        -0.114333      0.039558     -0.031270
O	      1.89613      4.26750     -4.12503        -0.035649      0.085233     -0.015440
