# total energy = -104.72017659 eV
 
CRYSTAL
PRIMVEC
0.001476 2.099322 2.160028 
8.229741 0.006930 -0.002789 
0.004191 4.262553 -4.380478 
PRIMCOORD
16 1
Li	      6.19477      4.23009     -2.13644         0.006402     -0.004754     -0.002264
Li	      6.21599      2.16293     -0.08866         0.008530      0.004176     -0.004828
Li	      8.01200      4.27758     -0.16318         0.003024     -0.011965     -0.027198
Li	      2.01699      4.22809     -2.15453        -0.003496      0.012047      0.001130
Mn	      8.13025      4.23678     -4.31416         0.012053      0.007782      0.003063
Mn	      2.05242      2.10713     -0.04778        -0.025549     -0.012564     -0.001422
Mn	      4.22203      4.24556     -0.08072        -0.005390     -0.003960      0.008191
Mn	      4.22795      4.27690     -4.32001         0.013341      0.004095     -0.002755
O	      4.07594      2.02355     -0.17967         0.009396     -0.012524     -0.016703
O	      6.06899      2.14111     -2.19570        -0.021425      0.000836     -0.000904
O	      4.10892      4.38040     -2.07689         0.007524      0.010666      0.016691
O	      6.09376      0.03210     -0.00437        -0.048958     -0.003421      0.003593
O	      0.07928      1.99134      0.19095         0.002727      0.007602      0.000482
O	      2.17235      4.05045     -0.07375         0.026989      0.010732     -0.006406
O	      0.00960      4.35851     -2.32102        -0.005212     -0.009645      0.020848
O	      2.19048      0.16002      0.03269         0.020041      0.000896      0.008485
