# total energy = -105.34157672 eV
 
CRYSTAL
PRIMVEC
2.126708 4.244981 2.122596 
2.100852 -4.219453 2.096697 
4.215180 -0.000096 -4.206923 
PRIMCOORD
16 1
Li	      4.22984      2.11895     -2.06747         0.002441     -0.001442      0.000462
Li	      4.22594      2.13288      2.09278        -0.002179     -0.000037     -0.003847
Li	      4.28629      0.01483     -0.05521         0.013148      0.005182     -0.009253
Li	      4.19130     -2.10455     -2.02011         0.005694      0.001013      0.030990
Mn	      4.18711      0.00009     -4.17572        -0.007009     -0.003972     -0.001998
Mn	      4.24033     -2.09459      2.07163         0.012728     -0.001371     -0.015129
Mn	      2.11127      0.00113     -2.10148        -0.003907     -0.007133     -0.019241
Mn	      6.31895      0.01132     -2.08418        -0.016882      0.008726     -0.001171
O	      4.23857     -2.23852      0.10895        -0.000098     -0.015373     -0.014936
O	      1.95047     -0.05594     -0.11649        -0.003991     -0.003560     -0.008492
O	      4.10336      2.26943     -0.01630         0.010420      0.014057     -0.000699
O	      2.24407     -1.96226      2.11325        -0.012699     -0.010114      0.003286
O	      4.09378      0.08021      2.27042        -0.023014      0.010518     -0.005177
O	      4.32837     -0.07122     -2.21490         0.031041     -0.007575      0.005328
O	      2.09736      1.98483      1.96396        -0.004945      0.006748      0.012567
O	      6.45686      0.09838      0.14251        -0.000747      0.004332      0.027311
