# total energy = -104.33927233 eV
 
CRYSTAL
PRIMVEC
0.000471 -0.000022 4.116830 
4.288784 0.000020 0.000482 
-0.000007 8.351836 -0.000053 
PRIMCOORD
16 1
Li	      2.14518      6.14298      0.00200        -0.000078     -0.014524      0.000241
Li	      0.00052      2.19896      2.06034         0.000781      0.005167     -0.001529
Li	      2.14517      4.40732      2.06113         0.000333      0.008364     -0.002395
Li	      0.00052      6.16797      2.06055         0.000147      0.010702     -0.000108
Mn	      0.00046      8.18333      0.00209         0.000726      0.001625      0.000564
Mn	      2.14496      2.15456      0.00244         0.000148      0.022777      0.000771
Mn	      0.00060      4.25716      0.00227        -0.000189     -0.008121     -0.000109
Mn	      2.14513      8.26777      2.06082        -0.000158     -0.019615     -0.000194
O	      0.00073      8.31733      2.06054         0.000942      0.007117     -0.000536
O	      2.14548      1.90436      2.06084        -0.001030      0.013459      0.000591
O	      2.14491      0.14461      0.00253        -0.000299     -0.049449     -0.000241
O	      0.00058      4.18897      2.06065         0.001341     -0.012755     -0.000118
O	      2.14529      6.44958      2.06078        -0.001046      0.032246      0.001359
O	      0.00073      2.16597      0.00218        -0.001005      0.016697     -0.000014
O	      2.14490      4.07264      0.00247         0.000131      0.055294      0.002758
O	      0.00062      6.17096      0.00210        -0.000744     -0.068984     -0.001040
