# total energy = -105.55171739 eV
 
CRYSTAL
PRIMVEC
-0.000494 2.022795 2.021539 
9.304071 0.000098 -0.000050 
0.000117 4.110685 -4.112402 
PRIMCOORD
16 1
Li	      6.98256      4.09381     -2.07429        -0.005097      0.004542      0.004424
Li	      4.65478      4.09172     -4.09108        -0.000634      0.006258     -0.002792
Li	      9.30392      2.07806     -2.07509         0.000734     -0.004767      0.006884
Li	      2.32435      4.09275     -2.07565         0.003831      0.005089      0.005203
Mn	      0.00136      4.05607     -4.05157        -0.001199     -0.002387      0.000484
Mn	      2.32708      2.04315     -0.01439        -0.004571      0.001193     -0.001228
Mn	      4.65307      2.11858     -2.11173         0.001109      0.010418     -0.020831
Mn	      6.97872      2.04332     -0.01420         0.003724      0.000736     -0.001621
O	      4.65309      2.16759     -0.13768        -0.000473     -0.018207      0.013597
O	      7.00030      1.97711     -1.97041        -0.006709      0.009189     -0.012388
O	      4.65304      4.05134     -2.02386        -0.000180      0.010226     -0.008924
O	      6.95934      0.08686     -0.07982         0.003320     -0.011306      0.013140
O	      0.00072      1.92023      0.10849         0.000577      0.005002     -0.011809
O	      2.30682      1.97650     -1.97097         0.007423      0.013532     -0.009602
O	      0.00033      4.14543     -2.11896         0.000408     -0.015482      0.015248
O	      2.34578      0.08710     -0.07957        -0.002265     -0.014037      0.010217
