# total energy = -105.52142673 eV
 
CRYSTAL
PRIMVEC
2.031167 4.680113 2.032921 
2.031553 -4.680463 2.033089 
4.067437 -0.000213 -4.069265 
PRIMCOORD
16 1
Li	      4.06574      2.33707     -2.03423         0.000035      0.002019     -0.001223
Li	      6.04111      0.00019     -1.97878         0.002297     -0.002052     -0.001379
Li	      4.11945     -0.00390     -0.05555         0.000165     -0.000549     -0.001534
Li	      6.09704      2.33783     -0.00114         0.000255      0.000870     -0.001031
Mn	      6.07793      4.67840     -2.01558        -0.017212     -0.001506      0.014025
Mn	      2.03169      2.33839      0.00018        -0.004853     -0.000064     -0.005040
Mn	      4.08394      4.67822     -0.02092         0.016237      0.001115     -0.012076
Mn	      4.06290      2.33818      2.03299         0.001908      0.000225      0.002899
O	      3.98761     -2.33920      0.07615         0.002799     -0.011761      0.002980
O	      1.95612     -0.00168     -0.07498         0.028805      0.000591      0.015734
O	      3.98707      2.33647      0.07642         0.007908      0.010623      0.000264
O	      2.10756     -2.34019      1.95669        -0.005946     -0.010321     -0.000007
O	      4.13872     -0.00213      2.10790        -0.029580      0.001287     -0.015168
O	      3.98648     -0.00100     -2.11333         0.011623     -0.001591      0.003352
O	      2.10698      2.33568      1.95691        -0.004016      0.010219      0.002057
O	      6.17570     -0.00218      0.07721        -0.010425      0.000897     -0.003853
