# total energy = -105.65741842 eV
 
CRYSTAL
PRIMVEC
2.179555 4.155715 2.058603 
2.141868 -4.164370 2.117029 
4.365955 0.048117 -4.220027 
PRIMCOORD
16 1
Li	      4.36440      2.11192     -2.13724        -0.001119      0.000320     -0.000921
Li	      2.13816     -0.03567      2.04293        -0.004755      0.009973     -0.027909
Li	      4.34019      2.08345      2.06012         0.001231      0.003239      0.000275
Li	      4.36499      0.04936      0.01871         0.000757     -0.010526      0.024084
Mn	      8.65961      0.00884     -0.06937         0.000611      0.000530     -0.003483
Mn	      4.32195     -2.07439      2.08915        -0.000768     -0.014197      0.004210
Mn	      2.20855      0.05378     -2.08930         0.007952      0.000379      0.028630
Mn	      6.52365      2.10899     -0.04927         0.009360      0.010138     -0.002808
O	      4.32293     -2.14656      0.12912         0.004763      0.012325      0.016419
O	      2.25128      0.13763     -0.12227         0.003432     -0.008584      0.009061
O	      4.53002      2.25047     -0.04642        -0.009356     -0.017913      0.007498
O	      6.33895     -2.18775     -2.11138        -0.000680      0.014692     -0.008599
O	      4.25042     -0.12285      2.18431        -0.003566      0.015693     -0.017437
O	      4.44754     -0.09480     -2.27831        -0.000591      0.009985      0.001989
O	      2.17965      2.16132      1.93290        -0.007102     -0.011581     -0.021977
O	      6.42082      0.15767      0.12098        -0.000169     -0.014471     -0.009033
