# total energy = -105.01428219 eV
 
CRYSTAL
PRIMVEC
0.000113 -0.000134 4.093228 
4.094717 0.000226 0.000113 
0.000531 8.791248 -0.000257 
PRIMCOORD
16 1
Li	      2.04537      6.59322      4.09086        -0.001352      0.001807      0.000077
Li	      2.04579      0.00055      2.04458        -0.001388      0.002584     -0.000325
Li	      4.09335      2.20369      2.04524        -0.003623     -0.003755     -0.002488
Li	      2.04495      4.39779      2.04523         0.000033      0.000258     -0.000967
Mn	      4.09271      0.00231      4.09108         0.013516      0.000485      0.007803
Mn	      2.04543      2.20009      4.09113        -0.002521      0.001842      0.004329
Mn	      4.09263      4.39807      4.09181        -0.011922     -0.004936     -0.000931
Mn	      4.09213      6.59490      2.04424         0.004210      0.006143      0.001561
O	      4.09380      8.55680      2.04509        -0.002171      0.041017     -0.010003
O	      2.04585      2.20070      2.04520        -0.001996     -0.001396     -0.001290
O	      2.04705      0.23871      4.09118        -0.020238     -0.044377     -0.000348
O	      4.09235      4.63211      2.04521        -0.002266     -0.034081     -0.003817
O	      2.04532      6.59509      2.04453        -0.000223     -0.003312     -0.001753
O	      4.09238      2.19933      4.09200         0.007331      0.007201     -0.001594
O	      2.04358      4.16266      4.09171         0.020653      0.038042     -0.000345
O	      4.09242      6.59588      4.09043         0.001958     -0.007524      0.010092
