# total energy = -103.67396176 eV
 
CRYSTAL
PRIMVEC
0.000038 2.084389 2.078742 
8.546339 -0.000063 0.000139 
-0.000070 4.324271 -4.313638 
PRIMCOORD
16 1
Li	      4.56552      2.16324     -2.15676         0.040093      0.000060     -0.000800
Li	      6.41319      4.15686     -2.07185         0.001330     -0.027677      0.031141
Li	      6.41407      2.25353     -0.16616         0.000359      0.027138     -0.031128
Li	      8.25995      4.24606     -0.08224        -0.038435     -0.000248      0.001169
Mn	      8.34438      2.08555      2.07764        -0.036239      0.000195      0.000005
Mn	      2.13981      2.14644     -0.06266        -0.000289     -0.013700      0.013036
Mn	      4.48323      2.08531      2.07753         0.036000      0.000290     -0.000231
Mn	      2.13999      4.26396     -2.17496        -0.001057      0.013647     -0.013185
O	      4.24844      1.97575      0.10530        -0.022690     -0.004932      0.000502
O	      6.41283      4.24740     -0.07954         0.000900     -0.000100     -0.000206
O	      4.24866      4.43486     -2.34276        -0.024641      0.004943     -0.001946
O	      6.41617      2.08546      2.07739         0.004930      0.000535      0.000317
O	      0.03085      1.97627      0.10521         0.020574     -0.007526      0.003834
O	      2.14030      4.24732     -0.07958        -0.001378      0.000037      0.000253
O	      0.03080      4.43492     -2.34245         0.022131      0.007886     -0.002897
O	      2.13593      2.08542      2.07755        -0.001589     -0.000548      0.000136
