# total energy = -90.84995441 eV
 
CRYSTAL
PRIMVEC
-0.000060 2.074878 2.073669 
6.149423 0.045986 -2.118979 
-2.085499 6.564588 -4.487452 
PRIMCOORD
16 1
Li	     -0.06071      4.49586     -0.34586        -0.009279     -0.036368      0.033864
Li	      2.01702      4.50454     -2.42699        -0.028032      0.015633     -0.013770
Li	      4.09030      4.23585     -4.23425         0.030071     -0.017445      0.014933
Li	      0.01915      6.27481     -2.12458         0.008383      0.034780     -0.035028
Mn	      4.04263      6.57124     -6.56738         0.070121     -0.010774      0.008252
Mn	      2.06513      2.16960     -0.09670        -0.069844      0.016080     -0.014212
Ni	      4.09423      2.28914     -2.28828         0.000294     -0.024901      0.021163
Ni	      2.01378      6.45192     -4.37548        -0.002379      0.023331     -0.017622
O	     -0.02097      4.34733     -2.27156        -0.001350      0.002620     -0.002280
O	     -0.00696      1.94449      0.12832         0.054796     -0.020364      0.029949
O	      4.06421      6.71421     -4.63516         0.084123      0.024129     -0.035048
O	      4.09449      4.24786     -2.17271        -0.017175      0.101900     -0.101051
O	     -0.04286      6.74802     -4.67097        -0.064987      0.013608     -0.022760
O	      4.10252      2.12220     -0.04821         0.011020     -0.000796      0.002495
O	      2.01343      6.56821     -2.41724         0.016767     -0.100134      0.098930
O	      2.04753      2.02711     -2.02954        -0.082529     -0.021300      0.032185
