# total energy = -104.50199497 eV
 
CRYSTAL
PRIMVEC
0.000272 0.000010 4.257603 
4.256953 0.000142 0.000272 
0.000480 8.344453 -0.000021 
PRIMCOORD
16 1
Li	      0.00143      4.17103      4.25752         0.000187      0.001852     -0.000232
Li	      2.13025      5.96948      4.25744        -0.001151      0.003391      0.000257
Li	      0.00125      2.37294      2.12885        -0.000143     -0.004742     -0.000897
Li	      2.12984      4.17118      2.12907        -0.000833      0.002282     -0.001124
Mn	      0.00152      8.34319      4.25748        -0.000605      0.009793     -0.000382
Mn	      2.12987      2.21274      4.25739        -0.000694      0.011436      0.000626
Mn	      2.12959      8.34296      2.12895         0.003058      0.003122     -0.001827
Mn	      0.00143      6.12956      2.12843         0.000141     -0.007162      0.001255
O	      0.00117      8.17076      2.12867         0.001420     -0.021283     -0.000151
O	      2.12952      1.95762      2.12855        -0.000209      0.072445      0.001432
O	      2.12942      0.17134      4.25766         0.002544      0.023918     -0.000150
O	      0.00172      4.32178      2.12811        -0.002722      0.057843      0.001458
O	      2.12996      6.38418      2.12910        -0.002341     -0.069528     -0.001767
O	      0.00141      1.95881      4.25720        -0.002681      0.059894      0.000557
O	      2.12969      4.02102      4.25704         0.002692     -0.069291      0.001200
O	      0.00120      6.38468      4.25748         0.001337     -0.073970     -0.000256
