# total energy = -105.11191735 eV
 
CRYSTAL
PRIMVEC
2.090221 4.298961 2.094263 
4.189257 -4.309036 0.011119 
4.178417 0.000111 -4.186983 
PRIMCOORD
16 1
Li	      4.20340      1.98698     -2.06900         0.007304     -0.007884      0.008510
Li	      4.17756      0.03450      0.05471         0.012785     -0.002483     -0.008083
Li	      4.18231     -2.14634     -2.08805        -0.005681      0.005831     -0.005557
Li	      6.31902      0.03833     -2.09641        -0.010326      0.000320      0.009218
Mn	     10.42173     -0.02462     -2.08737        -0.003423     -0.004656      0.007818
Mn	      6.25713     -2.17441     -0.01076         0.000478      0.009441     -0.014478
Mn	      8.36298     -0.02408     -0.02420         0.003033     -0.006973     -0.001190
Mn	      6.31906     -2.10302     -4.13602         0.010518      0.004719      0.005227
O	      4.27000     -2.26261      0.02662         0.001975      0.023685     -0.000157
O	      6.38622      0.01533      0.12268        -0.007423      0.014164      0.004931
O	      2.14752     -0.14264      0.06018         0.003711     -0.040009      0.013536
O	      4.06120      2.25441      0.01178        -0.001633     -0.011864     -0.018897
O	      6.29332     -2.27020     -1.99739        -0.005302      0.015227      0.014469
O	      8.33497      0.27620     -2.11872        -0.010814      0.024547     -0.012392
O	      4.01807     -0.06905     -2.25907         0.016481     -0.001279      0.001421
O	      6.28798      2.24820     -2.21367        -0.011684     -0.022786     -0.004378
