# total energy = -105.10725561 eV
 
CRYSTAL
PRIMVEC
2.158591 4.269166 2.007638 
4.364529 -4.287008 -0.013063 
4.366573 -0.010555 -4.040472 
PRIMCOORD
16 1
Li	      4.35201      2.12461     -2.02517        -0.001388      0.001558     -0.003968
Li	      8.59984      2.12552     -1.98527         0.010256     -0.009333      0.003850
Li	      4.47035     -2.16197     -2.08014        -0.013356      0.005293      0.000179
Li	      6.53406     -0.01816     -2.03225         0.001059     -0.001551      0.000897
Mn	      4.37490      0.01348     -3.99099         0.024033      0.003879      0.001816
Mn	      2.16820      2.13046     -0.00495        -0.008233      0.001795     -0.012174
Mn	      8.69247     -0.05069     -0.07264        -0.031245      0.013919     -0.018981
Mn	      4.34994     -0.01308     -0.01208         0.010857     -0.002244      0.006560
O	      4.55857     -2.31303      0.01546        -0.022818     -0.007458      0.002059
O	      6.34714      0.05016      0.02969        -0.017461      0.035856      0.016970
O	      2.35352     -0.07612     -0.05355         0.014292     -0.037291     -0.013009
O	      4.14149      2.28710     -0.03914         0.029340      0.002507      0.000597
O	      6.52850     -2.38707     -1.96216         0.003178      0.016827     -0.011295
O	      8.68546      0.03434     -2.06489         0.001523     -0.010884     -0.005268
O	      4.38162     -0.07084     -1.99933        -0.000653      0.009984      0.008035
O	      6.53857      2.35053     -2.10241         0.000614     -0.022857      0.023733
