# total energy = -104.93840777 eV
 
CRYSTAL
PRIMVEC
0.000001 4.150442 0.000029 
4.341649 0.000026 4.138338 
4.344780 -0.000032 -4.141675 
PRIMCOORD
16 1
Li	      6.51228      2.07687      0.18396        -0.002737      0.000170      0.014793
Li	      4.37227      2.07704      2.06998        -0.000746      0.000595      0.002689
Li	      6.51369      0.00164      2.01484         0.001776     -0.000490      0.004868
Li	      4.31301      2.07711     -2.07215         0.000951     -0.000277     -0.004234
Mn	      8.63339      0.00187      0.00659        -0.001495     -0.000305     -0.009404
Mn	      2.17192      2.07704     -0.09067        -0.007186     -0.000986     -0.061988
Mn	      4.39526      0.00176      0.00816        -0.003169      0.000311     -0.007078
Mn	      6.51494      0.00189     -2.03950        -0.001449     -0.001250     -0.044959
O	      2.17723      0.00176      0.07279         0.026679      0.000656      0.072565
O	      4.18343      2.07694     -0.01937         0.025011      0.001045      0.006107
O	      4.12133      0.00187      2.08366        -0.009254     -0.001097      0.027409
O	      2.17201      2.07704     -1.97188        -0.000379     -0.000303      0.038662
O	      4.56318      0.00165     -2.07508         0.003127      0.000740     -0.009624
O	      2.17103      2.07696      1.91269         0.001821      0.000840      0.022273
O	      6.50995      0.00194     -0.07932        -0.017074      0.000042     -0.055154
O	      0.16162      2.07703     -0.01812        -0.015877      0.000309      0.003075
