# total energy = -105.48553300 eV
 
CRYSTAL
PRIMVEC
0.000081 4.686774 0.000032 
4.066724 -0.000030 4.066628 
4.066697 -0.000021 -4.066625 
PRIMCOORD
16 1
Li	      4.11998      0.00292      0.05244        -0.002376     -0.000238     -0.003415
Li	      6.04634      2.34386      0.05255         0.007822      0.000386     -0.001361
Li	      4.11703      2.34453      1.98420         0.001595     -0.000147     -0.003623
Li	      6.05064      0.00137      1.98218        -0.000501     -0.000344      0.000763
Mn	      4.04661      0.00184      4.04520        -0.022617      0.001134     -0.022939
Mn	      2.05554      2.34527     -0.02183         0.021302      0.000262     -0.020510
Mn	      2.05515      0.00177      2.05367         0.020205      0.001111      0.022773
Mn	      4.04689      2.34529     -2.01336        -0.022881      0.000535      0.020512
O	      1.95567      0.00190      0.07770         0.024260     -0.000741     -0.015184
O	      3.99009      2.34459     -0.07942         0.001533      0.000662      0.011845
O	      3.98964      0.00236      2.11169         0.001277     -0.000695     -0.016217
O	      2.11237      2.34543     -1.95558        -0.005018      0.000052     -0.008481
O	      4.14556      0.00189     -2.11345        -0.012031     -0.000553      0.032195
O	      1.95636      2.34543      1.95348         0.016210     -0.000174      0.024569
O	      6.17897      0.00267     -0.07852        -0.010455     -0.001069      0.001241
O	      0.07947      2.34546      0.07794        -0.018324     -0.000183     -0.022166
