# total energy = -105.41911610 eV
 
CRYSTAL
PRIMVEC
4.074509 -0.000559 4.356336 
-0.000880 4.346251 -4.356336 
0.000603 4.344670 4.354658 
PRIMCOORD
16 1
Li	      0.00106      2.17782     -2.17650        -0.001708      0.000608     -0.001298
Li	      2.03923      4.34997      2.17657         0.000165     -0.000680      0.000557
Li	      2.03948      2.17734      4.35443         0.000130      0.000046     -0.000033
Li	      0.00262      4.35036      0.00155         0.000550     -0.000657     -0.001996
Mn	      0.00174      0.00361     -0.00114         0.005967      0.003102      0.007931
Mn	      2.03891      2.17666     -0.00054        -0.003393     -0.004772      0.002979
Mn	      2.03930      0.00308      2.17765        -0.011547      0.007717     -0.003580
Mn	      0.00196      2.17592      2.17673         0.008369     -0.004024     -0.004577
O	      0.09128      2.26968      0.19783        -0.014324      0.001508     -0.020202
O	      0.09046      4.25833     -2.37940        -0.010759     -0.011508      0.026247
O	      1.94935      1.98003      2.26605         0.022578      0.019782      0.013477
O	      2.12925      4.15467      0.08983        -0.032901      0.013239      0.004880
O	      3.98726      4.43946      6.73186         0.017114      0.011069     -0.029544
O	      3.98690      6.42847      4.15511         0.014666     -0.003733      0.021986
O	      1.94877      4.54289      4.26319         0.031271     -0.010177     -0.004053
O	      2.12868      6.71743      2.08723        -0.026178     -0.021521     -0.012776
