# total energy = -105.00776697 eV
 
CRYSTAL
PRIMVEC
4.210285 0.012352 4.335350 
0.005074 4.129845 -4.328126 
0.019609 4.129917 4.328176 
PRIMCOORD
16 1
Li	      0.00318      2.06517     -2.16353        -0.000015     -0.000568      0.000302
Li	      0.01046      2.06501      2.16404         0.000066     -0.000060     -0.000741
Li	      2.11526      6.19997      0.00361         0.000665      0.000114      0.000034
Li	      0.01308      4.12788      0.00006        -0.001471     -0.000129     -0.000068
Mn	      0.00065      0.00067      0.00011         0.000609     -0.002049      0.000284
Mn	      2.12865      6.20096      4.33196        -0.002264     -0.001072     -0.000461
Mn	      2.12571      4.13598      6.49581        -0.000123     -0.000174     -0.000091
Mn	      2.11834      4.13600      2.16793         0.000168      0.000291      0.000396
O	      0.15570      1.95763      0.00377         0.039461     -0.013965      0.002150
O	      4.13756      4.14240      1.99142        -0.016020     -0.001114      0.012099
O	      2.11117      2.11943      2.00408         0.001105      0.049354      0.014179
O	      2.00191      4.05211     -0.05356         0.002753      0.052216     -0.025885
O	      0.09907      4.13002      2.34422         0.015697      0.000817     -0.011313
O	      4.08238      6.31501      4.33195        -0.038215      0.016265     -0.002944
O	      2.23498      4.22003      4.38908        -0.002214     -0.051365      0.025328
O	      2.12563      6.15259      2.33161        -0.000202     -0.048561     -0.013270
