# total energy = -92.27298633 eV
 
CRYSTAL
PRIMVEC
-0.000177 2.074389 2.076878 
6.192969 6.303947 -4.235901 
-4.180838 2.137244 -2.140035 
PRIMCOORD
16 1
Li	      1.93645      6.15451     -4.08210        -0.001228     -0.008892      0.005471
Li	      4.03683      8.27455     -4.13581         0.001661     -0.005171      0.013368
Li	      0.04660      4.32857     -0.17541        -0.001753      0.004254     -0.013460
Li	      2.14719      4.37214     -2.30760         0.001561      0.009374     -0.004647
Mn	      6.16721      6.29610     -4.23054        -0.017888      0.005897     -0.002664
Mn	     -2.08374      4.23271     -2.15732         0.017432     -0.006810      0.001893
Ni	      0.03420      6.35274     -2.20615        -0.010706     -0.012135      0.011978
Ni	      4.04926      6.24939     -2.10575         0.010154      0.011980     -0.011478
O	      4.29988      6.29752     -4.23321         0.104074      0.081720     -0.070948
O	     -0.04858      6.33237     -4.26450        -0.000463      0.000854     -0.000074
O	      2.05246      8.57746     -4.44177         0.078520      0.049085     -0.038110
O	     -2.18679      4.31783     -0.16931        -0.024109      0.029429     -0.028965
O	     -0.21644      4.23092     -2.15494        -0.104002     -0.082119      0.070502
O	      2.04166      6.30056     -2.15638         0.000435      0.000943      0.000583
O	      0.07707      1.98149      0.09435         0.024738     -0.029556      0.028161
O	      2.03087      4.02577      0.13081        -0.078427     -0.048854      0.038389
