# total energy = -76.60230918 eV
 
CRYSTAL
PRIMVEC
2.005007 3.976762 2.004317 
4.081463 -2.020313 -2.016489 
2.034879 1.964771 -3.992036 
PRIMCOORD
12 1
Li	      3.88645      1.85482     -1.90033         0.155531      0.177003     -0.412077
Li	      3.87447     -0.03518     -3.80507        -0.321638     -0.240138     -0.233536
Li	      5.76652      1.84870     -3.80545         0.665190     -0.061680     -0.142367
Mn	      7.69283      3.70399     -3.78760         2.154784      2.269556     -4.054209
Mn	      1.92123      1.87771      0.00092        -3.402251      0.842018      2.289780
Mn	      1.95960     -0.00112     -1.91925        -1.022890     -4.297440      1.300026
O	      3.99902     -0.16805     -1.92951         0.063701     -1.121060      0.301244
O	      5.71323      1.72619     -1.77915         1.429095      0.695183     -0.051682
O	      3.93946      1.97568     -3.92752        -0.114207     -1.117975     -0.856208
O	      3.72078      2.00438      0.01508         1.224954      0.106633      1.206211
O	      1.95971      1.77421     -2.01031        -0.844445      2.565943      0.961194
O	      3.81545      3.84817     -1.78037         0.012175      0.181957     -0.308377
