# total energy = -77.63506251 eV
 
CRYSTAL
PRIMVEC
2.026112 4.018623 2.025415 
4.124426 -2.041580 -2.037715 
2.056299 1.985452 -4.034057 
PRIMCOORD
12 1
Li	      3.96870      1.89407     -1.94055         0.124393      0.131272     -0.303733
Li	      3.95647     -0.03593     -3.88560        -0.251603     -0.176094     -0.146502
Li	      5.88856      1.88782     -3.88598         0.488594     -0.043105     -0.114204
Mn	      7.85564      3.78238     -3.86777         1.657686      1.886710     -3.176472
Mn	      1.96189      1.91745      0.00094        -2.527202      0.619951      1.709098
Mn	      2.00107     -0.00115     -1.95986        -0.782078     -3.170452      0.988174
O	      4.08365     -0.17161     -1.97035        -0.035426     -0.898828      0.204554
O	      5.83414      1.76272     -1.81681         1.066859      0.537832     -0.041770
O	      4.02283      2.01749     -4.01064        -0.032422     -0.878847     -0.673423
O	      3.79953      2.04680      0.01540         0.982742      0.039015      0.941725
O	      2.00118      1.81176     -2.05285        -0.683069      1.814674      0.787373
O	      3.89620      3.92961     -1.81805        -0.008474      0.137872     -0.174819
