# total energy = -78.68111998 eV
 
CRYSTAL
PRIMVEC
2.057770 4.081414 2.057062 
4.188870 -2.073480 -2.069554 
2.088428 2.016475 -4.097090 
PRIMCOORD
12 1
Li	      4.09369      1.95373     -2.00167         0.078106      0.075676     -0.165967
Li	      4.08107     -0.03706     -4.00797        -0.154646     -0.096673     -0.059574
Li	      6.07402      1.94727     -4.00837         0.269891     -0.022372     -0.076805
Mn	      8.10304      3.90150     -3.98958         0.984247      1.230993     -1.879826
Mn	      2.02368      1.97784      0.00097        -1.419789      0.335657      0.959059
Mn	      2.06409     -0.00119     -2.02159        -0.458534     -1.746862      0.573378
O	      4.21226     -0.17701     -2.03240        -0.088757     -0.572450      0.093070
O	      6.01788      1.81823     -1.87403         0.604195      0.315842     -0.029616
O	      4.14953      2.08103     -4.13695         0.029986     -0.528280     -0.408626
O	      3.91919      2.11126      0.01588         0.611170     -0.009026      0.559615
O	      2.06421      1.86882     -2.11751        -0.430677      0.934554      0.480756
O	      4.01891      4.05337     -1.87531        -0.025193      0.082940     -0.045464
