# total energy = -78.90966370 eV
 
CRYSTAL
PRIMVEC
2.068323 4.102344 2.067611 
4.210351 -2.084113 -2.080167 
2.099138 2.026816 -4.118100 
PRIMCOORD
12 1
Li	      4.13578      1.97381     -2.02225         0.059025      0.060997     -0.124652
Li	      4.12304     -0.03744     -4.04918        -0.123212     -0.074365     -0.039598
Li	      6.13647      1.96730     -4.04959         0.212489     -0.018646     -0.067756
Mn	      8.18636      3.94162     -4.03060         0.774401      0.993214     -1.470625
Mn	      2.04449      1.99818      0.00098        -1.098868      0.252340      0.740418
Mn	      2.08531     -0.00120     -2.04238        -0.358430     -1.336172      0.448720
O	      4.25558     -0.17884     -2.05331        -0.086300     -0.463465      0.064430
O	      6.07976      1.83693     -1.89330         0.468266      0.249184     -0.022635
O	      4.19220      2.10243     -4.17949         0.036051     -0.418032     -0.321111
O	      3.95949      2.13297      0.01605         0.483776     -0.015966      0.435895
O	      2.08544      1.88804     -2.13928        -0.345580      0.701303      0.377656
O	      4.06023      4.09505     -1.89459        -0.021618      0.069609     -0.020742
