# total energy = -79.08305152 eV
 
CRYSTAL
PRIMVEC
2.078876 4.123274 2.078160 
4.231833 -2.094746 -2.090781 
2.109848 2.037157 -4.139111 
PRIMCOORD
12 1
Li	      4.17810      1.99401     -2.04294         0.041375      0.048581     -0.085800
Li	      4.16522     -0.03782     -4.09061        -0.091181     -0.055004     -0.022272
Li	      6.19925      1.98742     -4.09101         0.153580     -0.017661     -0.054661
Mn	      8.27011      3.98195     -4.07184         0.573391      0.751714     -1.074579
Mn	      2.06541      2.01862      0.00099        -0.794269      0.176109      0.533932
Mn	      2.10665     -0.00121     -2.06327        -0.263172     -0.953407      0.330587
O	      4.29911     -0.18067     -2.07431        -0.075146     -0.351445      0.043991
O	      6.14196      1.85572     -1.91266         0.337037      0.187514     -0.021693
O	      4.23508      2.12393     -4.22225         0.036063     -0.311034     -0.239411
O	      4.00000      2.15479      0.01621         0.359490     -0.018419      0.318848
O	      2.10677      1.90735     -2.16117        -0.259404      0.490629      0.271620
O	      4.10177      4.13694     -1.91397        -0.017764      0.052423     -0.000562
