# total energy = -79.20413519 eV
 
CRYSTAL
PRIMVEC
2.089428 4.144205 2.088709 
4.253314 -2.105379 -2.101394 
2.120558 2.047498 -4.160122 
PRIMCOORD
12 1
Li	      4.22062      2.01430     -2.06373         0.024744      0.037364     -0.050232
Li	      4.20761     -0.03821     -4.13225        -0.059558     -0.036270     -0.013270
Li	      6.26235      2.00765     -4.13266         0.100071     -0.015860     -0.042061
Mn	      8.35428      4.02248     -4.11328         0.377004      0.501985     -0.698707
Mn	      2.08643      2.03916      0.00100        -0.512199      0.105820      0.341030
Mn	      2.12809     -0.00122     -2.08427        -0.172510     -0.597953      0.217147
O	      4.34287     -0.18250     -2.09542        -0.057344     -0.238488      0.024003
O	      6.20447      1.87461     -1.93213         0.221478      0.130016     -0.016371
O	      4.27819      2.14555     -4.26522         0.032592     -0.206162     -0.155745
O	      4.04071      2.17672      0.01637         0.235443     -0.016833      0.212110
O	      2.12821      1.92677     -2.18317        -0.172202      0.305859      0.170753
O	      4.14352      4.17906     -1.93346        -0.017520      0.030521      0.011343
