# total energy = -79.27612516 eV
 
CRYSTAL
PRIMVEC
2.099981 4.165135 2.099258 
4.274796 -2.116012 -2.112007 
2.131268 2.057839 -4.181132 
PRIMCOORD
12 1
Li	      4.26336      2.03470     -2.08463         0.008509      0.027402     -0.016615
Li	      4.25022     -0.03859     -4.17409        -0.028157     -0.018141     -0.005833
Li	      6.32576      2.02798     -4.17450         0.050524     -0.016030     -0.031404
Mn	      8.43889      4.06321     -4.15493         0.186381      0.245150     -0.337214
Mn	      2.10755      2.05981      0.00101        -0.249775      0.045738      0.161899
Mn	      2.14964     -0.00123     -2.10538        -0.082952     -0.274429      0.108309
O	      4.38685     -0.18435     -2.11664        -0.030866     -0.121387      0.009396
O	      6.26730      1.89359     -1.95170         0.097089      0.072008     -0.010284
O	      4.32151      2.16728     -4.30841         0.026228     -0.105848     -0.071435
O	      4.08163      2.19876      0.01654         0.117408     -0.011421      0.105196
O	      2.14976      1.94628     -2.20527        -0.083023      0.140744      0.075343
O	      4.18548      4.22137     -1.95303        -0.011365      0.016215      0.012641
