# total energy = -89.37993106 eV
 
CRYSTAL
PRIMVEC
-0.000130 2.120362 2.111961 
8.770537 -4.122758 4.104528 
2.176370 2.019400 -4.123134 
PRIMCOORD
16 1
Li	      4.60953     -0.13444      0.10839        -0.023667      0.036844     -0.025091
Li	      4.62628     -2.08121      2.07547         0.012635     -0.034733      0.025465
Li	      6.33154      0.04051      2.06383        -0.012694      0.034995     -0.026787
Li	      6.34871     -1.90835      4.02784         0.024486     -0.036186      0.026942
Mn	      8.74232     -4.09382      4.07456        -0.005993      0.005673     -0.010686
Mn	      2.21557      2.05316      0.06479         0.006017     -0.004614      0.012458
Ni	      4.50794      1.92738     -1.91620        -0.167499      0.064354     -0.064816
Ni	      8.62612     -1.93994      1.94011         0.165460     -0.071402      0.057706
O	      2.18179      2.06456     -2.03082         0.000548      0.004719      0.003294
O	      6.56729     -0.01050      0.00796        -0.000604     -0.000870     -0.000676
O	      6.70990     -1.95769      1.95061        -0.250889      0.008899     -0.014517
O	      9.05223      0.03808      2.07712         0.035475      0.117924     -0.118394
O	      8.97593     -2.03968      4.12331         0.020750      0.033325     -0.031968
O	      1.98164     -0.01922     -0.00150        -0.020810     -0.025933      0.035148
O	      4.08195      2.07189      0.06122        -0.037070     -0.121428      0.117976
O	      4.24786     -0.08264      2.18817         0.253853     -0.011566      0.013947
