# total energy = -79.28366508 eV
 
CRYSTAL
PRIMVEC
2.121087 4.206996 2.120357 
4.317758 -2.137279 -2.133233 
2.152688 2.078520 -4.223154 
PRIMCOORD
12 1
Li	      4.34949      2.07580     -2.12674        -0.023537      0.006450      0.046155
Li	      4.33609     -0.03937     -4.25841         0.030533      0.013796      0.002390
Li	      6.45355      2.06895     -4.25883        -0.035977     -0.020588     -0.001995
Mn	      2.17052      2.07557     -4.22599        -0.181568     -0.282661      0.317547
Mn	      2.15013      2.10143      0.00104         0.230253     -0.053011     -0.154689
Mn	      2.19307     -0.00126     -2.14791         0.088337      0.296000     -0.090767
O	      4.47547     -0.18808     -2.15940         0.031258      0.132368     -0.011352
O	      6.39391      1.93185     -1.99112        -0.116911     -0.026687     -0.004858
O	      4.40882      2.21106     -4.39545        -0.006831      0.079305      0.087079
O	      4.16408      2.24318      0.01687        -0.110976      0.002572     -0.093723
O	      2.19319      1.98559     -2.24982         0.090440     -0.126839     -0.098029
O	      4.27003      4.30665     -1.99249         0.004981     -0.020705      0.002243
