# total energy = -79.22390980 eV
 
CRYSTAL
PRIMVEC
2.131639 4.227926 2.130906 
4.339240 -2.147912 -2.143846 
2.163398 2.088861 -4.244165 
PRIMCOORD
12 1
Li	      4.39287      2.09651     -2.14796        -0.038037      0.000924      0.071897
Li	      4.37934     -0.03977     -4.30089         0.058942      0.026427      0.007003
Li	      6.51793      2.08958     -4.30131        -0.073778     -0.022243      0.010666
Mn	      0.06096      0.01776     -0.02404        -0.358244     -0.552530      0.611164
Mn	      2.17158      2.12239      0.00104         0.447773     -0.093331     -0.295926
Mn	      2.21494     -0.00127     -2.16934         0.171021      0.547808     -0.182228
O	      4.52011     -0.18995     -2.18094         0.067468      0.265372     -0.017521
O	      6.45769      1.95112     -2.01098        -0.215904     -0.069255     -0.003245
O	      4.45279      2.23312     -4.43929        -0.025151      0.159268      0.165396
O	      4.20562      2.26556      0.01704        -0.219095      0.012874     -0.183765
O	      2.21507      2.00540     -2.27226         0.172196     -0.233967     -0.171511
O	      4.31262      4.34961     -2.01236         0.012810     -0.041346     -0.011930
