# total energy = -79.12508162 eV
 
CRYSTAL
PRIMVEC
2.142192 4.248856 2.141455 
4.360721 -2.158545 -2.154459 
2.174108 2.099202 -4.265175 
PRIMCOORD
12 1
Li	      4.43647      2.11732     -2.16927        -0.052604     -0.005411      0.094912
Li	      4.42280     -0.04016     -4.34358         0.088381      0.040065      0.006259
Li	      6.58262      2.11033     -4.34400        -0.113201     -0.026656      0.026633
Mn	      0.10452      0.03868     -0.04546        -0.531492     -0.829563      0.885047
Mn	      2.19313      2.14345      0.00105         0.652071     -0.125350     -0.423501
Mn	      2.23693     -0.00128     -2.19087         0.248389      0.775252     -0.265163
O	      4.56498     -0.19183     -2.20259         0.104884      0.406591     -0.018458
O	      6.52178      1.97048     -2.03094        -0.309481     -0.108232     -0.001768
O	      4.49699      2.25528     -4.48335        -0.039862      0.244159      0.238582
O	      4.24736      2.28804      0.01721        -0.323979      0.021451     -0.272051
O	      2.23706      2.02531     -2.29482         0.254868     -0.326402     -0.234558
O	      4.35543      4.39278     -2.03233         0.022026     -0.065903     -0.035933
