# total energy = -78.12581316 eV
 
CRYSTAL
PRIMVEC
2.194955 4.353508 2.194200 
4.468128 -2.211712 -2.207525 
2.227657 2.150907 -4.370229 
PRIMCOORD
12 1
Li	      4.65771      2.22290     -2.27745        -0.117634     -0.023030      0.186994
Li	      4.64336     -0.04216     -4.56018         0.224824      0.099566      0.006680
Li	      6.91088      2.21556     -4.56063        -0.266179     -0.051767      0.121711
Mn	      0.32872      0.14635     -0.15570        -1.305556     -2.242918      1.877657
Mn	      2.30250      2.25034      0.00110         1.501066     -0.176873     -0.884710
Mn	      2.34848     -0.00135     -2.30012         0.632436      1.606496     -0.612644
O	      4.79262     -0.20140     -2.31242         0.276678      1.225056      0.023152
O	      6.84701      2.06875     -2.13223        -0.731704     -0.219527     -0.019200
O	      4.72125      2.36775     -4.70693        -0.136914      0.536257      0.578192
O	      4.45917      2.40214      0.01807        -0.740782      0.066258     -0.656152
O	      2.34861      2.12630     -2.40925         0.606138     -0.602508     -0.417576
O	      4.57262      4.61184     -2.13368         0.057627     -0.217009     -0.204105
