# total energy = -77.83944824 eV
 
CRYSTAL
PRIMVEC
2.205508 4.374438 2.204749 
4.489609 -2.222345 -2.218138 
2.238367 2.161248 -4.391240 
PRIMCOORD
12 1
Li	      4.70261      2.24433     -2.29940        -0.128377     -0.023449      0.199998
Li	      4.68811     -0.04257     -4.60414         0.250764      0.108764      0.008232
Li	      6.97749      2.23692     -4.60459        -0.291815     -0.057649      0.144399
Mn	      0.37484      0.16849     -0.17837        -1.439438     -2.530106      2.009105
Mn	      2.32469      2.27203      0.00112         1.640689     -0.163796     -0.942364
Mn	      2.37111     -0.00136     -2.32229         0.705737      1.715656     -0.666937
O	      4.83881     -0.20334     -2.33471         0.297901      1.410948      0.034506
O	      6.91301      2.08869     -2.15278        -0.804346     -0.223632     -0.026513
O	      2.52838      0.22932     -0.36106        -0.156631      0.576705      0.633142
O	      4.50214      2.42530      0.01824        -0.802133      0.074872     -0.720643
O	      2.37125      2.14680     -2.43248         0.662562     -0.632884     -0.423715
O	      4.61670      4.65629     -2.15425         0.065086     -0.255428     -0.249210
