# total energy = -818.51172602 eV
 
CRYSTAL
PRIMVEC
3.799848 8.724697 4.228576 
7.809348 -4.490380 -4.205381 
5.783093 6.333841 -0.014022 
PRIMCOORD
119 1
Li	      7.80525     -0.01247     -4.15619         0.012059      0.005175     -0.007278
Li	      5.80452      6.60063      0.06576         0.009993      0.017488     -0.016066
Li	      9.70767      4.33283     -2.03063         0.010119     -0.009238     -0.006694
Li	      3.89194     -0.04090     -4.14045         0.005244      0.021143     -0.000120
Li	     11.57143      6.37043     -2.03321        -0.001559     -0.017452      0.002265
Li	      5.71431      4.07824     -2.04662        -0.016711     -0.046819      0.002753
Li	      9.69812      2.01712     -4.14352         0.001253     -0.010757      0.001831
Li	      5.73789      1.97221     -4.05684         0.004590     -0.000123     -0.024610
Li	      9.74444     -0.45138     -6.23549        -0.008509     -0.023819      0.003707
Li	      7.66128      6.28157     -2.02353        -0.014318     -0.028235      0.013354
Li	     11.58878      4.06343     -4.13012        -0.004248     -0.006390      0.001738
Mn	      7.70303      4.14626     -4.15512        -0.001306      0.025232     -0.011210
Mn	      9.60385      6.31707     -8.24193         0.042914      0.008360     -0.028778
Mn	     11.53464      8.47735    -12.18952        -0.012995     -0.060340      0.030513
Mn	     11.60853      1.92740     -6.26114         0.012827     -0.013612     -0.007999
Mn	     13.50774      4.06605    -10.34560         0.018363      0.029046     -0.048498
Mn	     15.47055      6.23681    -14.27604         0.022081     -0.062486      0.038960
Mn	      9.59868      8.52292     -2.04478         0.005053      0.018149     -0.010184
Mn	     11.50821     10.67261     -6.11984         0.022091      0.044303     -0.045733
Mn	      9.66040      4.10491    -14.28665         0.000410     -0.076197      0.038333
Mn	      5.70416     10.75414      0.06734         0.009849      0.015388     -0.014683
Mn	     15.40924      8.42724     -8.22688         0.036955     -0.009624     -0.037640
Mn	      5.76876      6.36660    -12.18393         0.019822     -0.062500      0.027015
Mn	      1.97841      2.15385      0.26589         0.017616     -0.019453     -0.021501
Mn	      3.81801      4.25924     -4.34580        -0.020374      0.023467      0.008551
Mn	      5.77591      6.37589     -8.23401         0.002148      0.007544     -0.002616
Mn	      5.84093     -0.07921     -1.83263         0.005481     -0.018468     -0.014934
Mn	      7.72469      2.03526     -6.46922        -0.001754      0.008370      0.015907
Mn	      9.68156      4.13247    -10.33765         0.004390      0.002043      0.003556
Mn	      3.86824      6.50786      2.39898         0.016406     -0.027025     -0.024104
Mn	      5.71279      8.66146     -2.27083        -0.014365      0.018947      0.020674
Mn	      7.67822     10.73807     -6.12746        -0.000607      0.003010      0.004798
Mn	      7.76143      4.24678      0.29770        -0.010360     -0.011489     -0.012931
Mn	      9.61463      6.40515     -4.36628         0.010717      0.021310      0.020997
Mn	     11.58108      8.49692     -8.22745         0.001408     -0.002222      0.008208
Mn	      1.99716      0.05081     -2.02483        -0.009910     -0.003314      0.011606
Mn	      7.69021     10.77633     -2.16414        -0.013060      0.085012     -0.054374
Mn	      5.85528      4.19819    -10.33416        -0.023850     -0.033728      0.042667
Mn	      5.88013     -2.21965     -4.12363        -0.016747     -0.015851      0.017695
Mn	     11.60740      8.51178     -4.26619         0.010822      0.056861     -0.027678
Mn	      9.76026      1.94877    -12.43638        -0.037186     -0.003891      0.028601
Mn	      3.87928      4.39672      0.08127        -0.010903     -0.030404      0.014676
Mn	      5.79487      6.39006     -4.28318        -0.038111      0.071463     -0.025121
Mn	      7.75145      8.55935     -8.22744        -0.029357      0.001166      0.040909
Mn	      7.78789      2.13688     -2.00508        -0.023901     -0.026913      0.033878
Mn	      9.70352      4.16290     -6.38454         0.006017      0.075068     -0.048588
Mn	     11.65615      6.31829    -10.33243        -0.020699     -0.036377      0.040089
O	      3.90748     -0.27093     -2.13361        -0.036175      0.016094      0.004623
O	      5.82788      1.72716     -6.15959        -0.028796     -0.042045     -0.006770
O	      7.76165      3.85779    -10.28400        -0.038586     -0.030658     -0.010404
O	      7.81511     -2.45642     -4.23085        -0.048111      0.002275      0.013386
O	      9.73165     -0.53237     -8.25647        -0.031930     -0.026802     -0.008255
O	     11.66501      1.61235    -12.39393        -0.034511     -0.013943     -0.013128
O	      5.80887      4.14673     -0.02221        -0.037885     -0.002565      0.010650
O	      7.72121      6.08278     -4.05100        -0.023968     -0.049576     -0.004357
O	      9.65819      8.22476     -8.17462        -0.041434     -0.020807     -0.025427
O	      9.73022      1.90430     -2.11028        -0.055724      0.014577      0.002747
O	     11.62721      3.87167     -6.15517        -0.031098     -0.026928     -0.005171
O	     13.56224      5.97496    -10.28148        -0.043482     -0.027152     -0.016907
O	      5.88696      1.95014     -1.93215         0.052522      0.036343      0.004589
O	      7.79228      3.94179     -6.08616         0.013233      0.012545      0.060140
O	      9.73332      6.09850    -10.16767         0.029014      0.021312      0.040333
O	      9.76078     -0.29337     -4.05211         0.029966      0.025975      0.007270
O	     11.70051      1.68304     -8.19472         0.025120      0.015014      0.046449
O	     13.63844      3.85049    -12.27283         0.030036      0.014959      0.042725
O	      7.75497      6.28654      0.18313         0.047226      0.019740     -0.003317
O	      9.69621      8.30777     -3.97598         0.009088      0.012025      0.052369
O	     11.63666     10.45961     -8.04857         0.035841      0.019762      0.045406
O	     11.66599      4.06514     -1.91696         0.032311      0.033760     -0.001441
O	     13.59167      6.06659     -6.09237         0.030842      0.011068      0.040163
O	     15.54372      8.21442    -10.15745         0.031620      0.020167      0.037139
O	      3.81816      2.22678     -4.35121        -0.045444     -0.021403      0.008829
O	      5.72275      4.41136     -8.40630        -0.026551     -0.015848     -0.038585
O	      7.68073      6.58089    -12.47610        -0.032782     -0.003625     -0.046566
O	      7.73196     -0.00953     -6.35192        -0.033376     -0.029661     -0.001881
O	      9.62955      2.16695    -10.50791        -0.030682     -0.021498     -0.032109
O	     11.57313      4.33280    -14.57509        -0.023352     -0.013908     -0.069836
O	      5.72253      6.63984     -2.14310        -0.033260     -0.031356     -0.008550
O	      7.62057      8.77319     -6.29776        -0.024338     -0.029491     -0.034995
O	      9.57175     10.93909    -10.36204        -0.024059     -0.003464     -0.054495
O	      9.62900      4.35951     -4.23776        -0.055841     -0.026501      0.004581
O	     11.52588      6.53298     -8.40263        -0.031709     -0.018700     -0.030069
O	     13.46419      8.67968    -12.45946        -0.009238     -0.005073     -0.055149
O	      3.85653      2.48843      0.04502         0.032823      0.036410      0.009935
O	      5.77050      4.37880     -4.05078         0.078068     -0.004137     -0.013136
O	      7.69773      6.65226     -8.29265         0.035402      0.019760      0.011768
O	      7.75696      0.21004     -2.12444         0.027986      0.042835      0.006401
O	      9.67743      2.17986     -6.16624         0.030052     -0.000439     -0.002717
O	     11.60210      4.40682    -10.39077         0.043891      0.030726      0.006273
O	      5.75672      6.82227      2.09302         0.029264      0.026087      0.002507
O	      7.66875      8.77014     -1.95498         0.057261     -0.003252     -0.004967
O	      9.60167     11.01329     -6.16993         0.049852      0.025674      0.016562
O	      9.66285      4.57044     -0.00939         0.026669      0.041596      0.007080
O	     11.56746      6.51220     -4.05994         0.032934      0.003285     -0.008154
O	     13.50302      8.76583     -8.27534         0.041795      0.018633      0.012777
O	      1.90739      1.95026     -2.20587         0.005250     -0.025063     -0.045833
O	      3.89451      3.91050     -6.35272         0.000821     -0.062634     -0.044279
O	      5.84039      6.12345    -10.34039        -0.002058     -0.000238     -0.075668
O	      5.86014     -0.28838     -4.28990         0.001076     -0.035323     -0.053834
O	      7.80953      1.64710     -8.45035        -0.009755     -0.054511     -0.035248
O	      9.74125      3.87161    -12.44505        -0.004368     -0.013263     -0.091008
O	      3.86510      6.34242     -0.07724        -0.011383     -0.022704     -0.047637
O	      5.79409      8.25243     -4.24726        -0.000907     -0.050517     -0.039195
O	      7.73767     10.48423     -8.22383        -0.002335     -0.005869     -0.074151
O	      7.76420      4.06822     -2.17659        -0.008500     -0.021972     -0.054244
O	      9.69391      6.02411     -6.34210        -0.010216     -0.063248     -0.039453
O	     11.64777      8.23820    -10.34404        -0.014088     -0.000396     -0.070075
O	      3.81128      4.53010     -1.88432        -0.000469      0.041026      0.042442
O	      5.71910      6.62960     -6.13172         0.001861     -0.000715      0.077806
O	      7.64878      8.86723    -10.12275         0.011026      0.054942      0.049486
O	      7.71970      2.21953     -3.98809         0.008369      0.049859      0.038266
O	      9.62453      4.39318     -8.22889        -0.005635      0.007893      0.080843
O	     11.53664      6.61751    -12.22853         0.014928      0.049014      0.051479
O	      5.72213      8.82986      0.22390         0.006067      0.037499      0.045845
O	      7.61809     10.99657     -4.00607         0.002956      0.013758      0.094892
O	      9.56541     13.23019     -8.00158         0.008790      0.062873      0.045435
O	      9.60571      6.59010     -1.87437         0.007753      0.023498      0.040898
O	     11.52950      8.74952     -6.11214        -0.011958     -0.002461      0.083256
O	     13.46145     10.96483    -10.10288         0.004487      0.064945      0.039718
