# total energy = -840.79410616 eV
 
CRYSTAL
PRIMVEC
3.877402 8.727220 4.265801 
7.866955 -4.456804 -4.220859 
5.851558 6.326861 -0.013937 
PRIMCOORD
123 1
Li	      9.86667      1.87744     -8.26946         0.015244      0.003081     -0.013213
Li	     11.83981      4.38802    -12.62005         0.004993      0.012396     -0.001367
Li	      7.83769      8.63921     -4.05492        -0.014676      0.028674     -0.000589
Li	     11.77233      6.33975     -6.16501         0.009621      0.000245      0.013404
Li	     13.77358      8.74546    -10.48074        -0.003586      0.013287     -0.006165
Li	      5.89049      2.02178     -8.26912        -0.005865      0.035615     -0.001637
Li	     13.64740      8.44943     -6.14875         0.002991     -0.002553     -0.003096
Li	     11.80841      2.13837    -14.59140        -0.004582      0.012091      0.007627
Li	      7.75314      6.16963     -6.15836        -0.003279     -0.026122      0.001093
Li	     11.71118      4.01497     -8.31045         0.006960     -0.008955     -0.007490
Li	     13.73386      6.53687    -12.46890         0.003154      0.014491     -0.000817
Li	      7.79272      3.97792     -8.22225         0.005544      0.002622     -0.023175
Li	     11.80375      1.59547    -10.34184        -0.005249     -0.017972     -0.001860
Li	      9.73383      8.34227     -6.13877        -0.009144     -0.021500      0.017483
Li	     13.66432      6.10404     -8.25999        -0.013916     -0.010513      0.004860
Mn	      7.79301      4.26032     -3.98672         0.094571      0.162031     -0.390311
Mn	      9.74309      6.30433     -8.27188         0.009779      0.010422     -0.000092
Mn	      5.76637      2.13998     -0.00151        -0.004340      0.030205     -0.076799
Mn	      3.86985      6.48252     -1.84791         0.002708     -0.068552      0.018802
Mn	      5.81328      8.50593     -6.13966         0.001271     -0.043541      0.022012
Mn	      9.76259     -0.12504     -2.10274         0.006431      0.038527     -0.023477
Mn	      5.85815     -0.14296     -6.12810         0.008911     -0.040662      0.010795
Mn	     11.69101     10.67356     -6.13765        -0.000426      0.022733     -0.005692
Mn	      7.71340      6.48851      2.14618         0.001351      0.039131     -0.025212
Mn	      9.76931     -2.37071     -8.20920         0.040153     -0.020798      0.034592
Mn	      7.76527     12.82386     -3.98886         0.000493     -0.024940      0.004131
Mn	     17.56429     10.55766    -12.38339         0.038001      0.019030     -0.036051
Mn	      1.92998      2.15760      0.01508         0.009725      0.002150      0.000662
Mn	      4.01286      4.12314     -3.81349         0.059295      0.060189     -0.011138
Mn	      5.89963      6.32373     -8.36049        -0.009849     -0.000483      0.010964
Mn	      5.82365      0.01997     -2.24557         0.017935      0.026697      0.040536
Mn	      7.84594      2.01526     -5.98817        -0.011945     -0.019807     -0.002296
Mn	      9.70416      4.24518    -10.57727         0.027736      0.015987      0.015096
Mn	      3.86998      6.51870      2.15506        -0.023962     -0.006339     -0.008335
Mn	      5.87939      8.57132     -1.73468        -0.000590     -0.016638     -0.030696
Mn	      7.84305     10.73352     -6.26298        -0.014620      0.003512      0.013644
Mn	      7.77101      4.38409     -0.10337        -0.000782     -0.071050     -0.056517
Mn	      9.80943      6.34616     -3.85495         0.042921      0.007693     -0.012245
Mn	     11.62827      8.62320     -8.45768         0.022506      0.007694      0.022018
Mn	      1.98407     -0.02349     -2.11595        -0.027049     -0.007371      0.028052
Mn	      3.94574      2.08270     -6.18096        -0.030497      0.023727      0.016040
Mn	      9.78292     12.91980     -6.23628        -0.021937      0.045666     -0.007528
Mn	      5.95706     -2.23573     -4.23529         0.012432      0.009423      0.017221
Mn	      7.89060     -0.10687     -8.30875         0.005875     -0.015594      0.012393
Mn	     13.69593     10.69937     -8.28393        -0.004723      0.005536     -0.005216
Mn	      3.92346      4.35747      0.02351        -0.037601      0.012589      0.006935
Mn	      5.89574      6.47031     -4.04519         0.001681      0.056261      0.017359
Mn	      7.82768      8.54263     -8.37238        -0.019808      0.046933     -0.011812
Mn	      7.88598      2.14908     -2.11698         0.029633     -0.086698     -0.102512
Mn	      9.83082      4.24256     -6.15831        -0.030110      0.003268      0.067269
Mn	     11.73874      6.36027    -10.43434        -0.005146      0.009392     -0.012767
O	      3.90817     -0.33760     -2.05560        -0.041887     -0.039278     -0.018046
O	      5.87724      1.81333     -6.29060        -0.015471     -0.024350      0.002541
O	      7.80850      3.87527    -10.31925        -0.053499     -0.032980     -0.010137
O	      7.85375     -2.57698     -4.13827        -0.064479     -0.026120     -0.023106
O	      9.83482     -0.35724     -8.36474        -0.018171     -0.008623     -0.015234
O	     11.78528      1.64838    -12.46854        -0.044333      0.030402     -0.011898
O	      5.84557      4.03858      0.06988         0.001945     -0.028282     -0.014100
O	      7.84265      6.24336     -4.15527         0.022140      0.161652     -0.017244
O	      9.72943      8.24431     -8.17756        -0.042692     -0.033964     -0.000777
O	      9.78213      1.78972     -2.01469        -0.037058     -0.030779     -0.026301
O	     11.77828      4.03212     -6.27067        -0.048289      0.002479      0.000364
O	     13.71071      6.06423    -10.37493        -0.044978      0.017815     -0.000996
O	      5.92411      1.95248     -1.93855        -0.016383      0.006697      0.065395
O	      7.91917      4.05663     -6.03783         0.061447      0.004971     -0.210351
O	      9.83222      6.17544    -10.19054         0.044370      0.047149      0.058277
O	      9.86285     -0.33522     -4.01244         0.031164      0.004357      0.043186
O	     11.83859      1.87803     -8.18533         0.036786     -0.008396      0.009065
O	     13.73920      3.83283    -12.32474         0.037947     -0.000195     -0.008142
O	      7.87161      6.30027      0.21368         0.027445      0.014707      0.030851
O	      9.75656      8.36101     -3.90280        -0.026868      0.009652      0.024130
O	     11.78482     10.53941     -8.05967         0.046026      0.048117      0.054796
O	     11.80509      4.01970     -1.87696         0.032845      0.026720      0.046381
O	     13.73678      6.15441     -6.06756         0.034706      0.020427      0.009235
O	     15.68552      8.21821    -10.19585         0.031208      0.005794     -0.012373
O	      3.81291      2.21133     -4.28243        -0.025248     -0.068536     -0.079478
O	      5.91983      4.38631     -8.48447         0.058090      0.003422     -0.042523
O	      7.72057      6.52566    -12.58393        -0.039977     -0.030031     -0.026159
O	      7.77045      0.10413     -6.36119        -0.042656     -0.010348     -0.032802
O	      9.75826      2.10269    -10.52683        -0.031135     -0.034578     -0.025842
O	     11.64432      4.29848    -14.65435        -0.019267     -0.034630     -0.012723
O	      5.78984      6.67691     -2.10131        -0.021928     -0.003110     -0.045685
O	      7.85030      8.79698     -6.27089         0.062407      0.005229     -0.035789
O	      9.65030     10.88929    -10.44494        -0.038721     -0.027346     -0.030090
O	      9.72300      4.44742     -4.24065         0.338447      0.003261     -0.103464
O	     11.68275      6.50705     -8.40419        -0.036920     -0.026158     -0.013656
O	     13.57527      8.66312    -12.53663        -0.011215      0.020076     -0.000384
O	      3.88189      2.43550     -0.03469         0.063162      0.012809      0.027074
O	      5.95412      4.58631     -4.05630        -0.550969     -0.036600      0.070724
O	      7.82679      6.55340     -8.14712         0.050265      0.012347     -0.012154
O	      7.78287      0.22187     -2.01438         0.043932     -0.027511     -0.002292
O	      9.79094      2.31962     -6.29027         0.022247      0.030800     -0.004217
O	     11.67934      4.37993    -10.42005        -0.059211      0.036924     -0.001640
O	      5.82779      6.78201      2.12259         0.072899      0.012962      0.014245
O	      7.78677      8.87484     -2.03559         0.037038      0.028454      0.016825
O	      9.77530     10.93015     -6.03043         0.056064      0.015248     -0.011658
O	      9.73484      4.56616      0.13671        -0.003417      0.019183     -0.023383
O	     11.72112      6.67498     -4.16601         0.044225      0.019153      0.006015
O	     13.60544      8.71209     -8.29423        -0.060015      0.049800     -0.001579
O	      1.98058      1.88313     -2.14241        -0.001396     -0.021917     -0.076126
O	      3.84721      4.00346     -6.33480         0.004255     -0.039195      0.002981
O	      5.81926      6.07385    -10.47961        -0.006016     -0.043717     -0.047140
O	      5.95261     -0.33391     -4.27327        -0.003415     -0.027000     -0.095335
O	      7.88916      1.85006     -8.43971        -0.008918      0.003692     -0.037098
O	      9.91511      3.85299    -12.60049        -0.000816     -0.055817     -0.049150
O	      3.92222      6.26709      0.00530        -0.008538     -0.025611     -0.078904
O	      5.86098      8.44698     -4.19693         0.001046     -0.025338      0.000159
O	      7.73777     10.42733     -8.35289        -0.006412     -0.045235     -0.040038
O	      7.93677      4.04315     -2.17129        -0.048780      0.045597      0.624637
O	      9.81927      6.18667     -6.30870        -0.013921     -0.026726     -0.044887
O	     11.83000      8.24133    -10.48629         0.002327     -0.056857     -0.043304
O	      3.83967      4.62570     -1.86108         0.000501      0.075047      0.066959
O	      5.82028      6.59399     -6.01855         0.012443     -0.026446      0.071300
O	      7.74861      8.75306    -10.23130         0.008699      0.005723      0.084435
O	      7.76513      2.40042     -3.99108         0.007790     -0.334554      0.088847
O	      9.74792      4.37812     -8.15471         0.006122      0.043490      0.043816
O	     11.75284      6.48568    -12.32749         0.004135      0.008476      0.065149
O	      5.75060      8.94926      0.25808         0.001422      0.055081      0.054115
O	      7.76169     10.87810     -3.91572         0.004339     -0.035102      0.045924
O	      9.69366     13.11557     -8.09568         0.000076      0.023582      0.078643
O	      9.74309      6.70633     -1.84261        -0.004496      0.050123      0.081115
O	     11.68113      8.73561     -6.02384         0.002101      0.041436      0.028129
O	     13.70945     10.83502    -10.17632         0.007201      0.001265      0.046009
