# total energy = -87.14777587 eV
 
CRYSTAL
PRIMVEC
0.046938 2.106237 -2.087384 
-0.043264 2.105892 2.086985 
17.587328 0.014246 -0.375106 
PRIMCOORD
16 1
Li	      6.93834      2.10408      0.10401         0.050403     -0.000968     -0.000830
Li	      8.83801      2.10622     -2.06423         0.001231     -0.003718     -0.000293
Li	     10.87922      2.12303     -0.43975         0.001591      0.002465     -0.002508
Li	     12.70016      2.12453      1.56108        -0.065081     -0.001898      0.000408
Mn	     17.40322      2.12134      1.65503         0.031767      0.001169      0.003454
Mn	      2.41022      2.10587     -0.00079        -0.032357      0.000140     -0.000313
Ni	      4.78260      2.10495     -2.03515        -0.115418     -0.001362     -0.004579
Ni	     14.91998      2.12329     -0.48363         0.122077      0.000321      0.005544
O	     15.31952      2.12261      1.61511         0.009078     -0.000497      0.004285
O	      0.36264      2.10690     -0.04592         0.068133      0.000444     -0.001399
O	     10.70110      2.12449      1.60111         0.010768     -0.002738     -0.006827
O	     13.01027      2.12432     -0.51154        -0.184800     -0.000286     -0.001645
O	      6.69878      2.10461     -1.99863         0.199388      0.000034      0.002300
O	      8.92768      2.10436      0.06898        -0.011566      0.003622      0.001642
O	      2.44750      2.10606     -2.08829         0.008079      0.001667      0.005149
O	      4.37294      2.10499      0.04317        -0.093292      0.001605     -0.004388
