# total energy = -882.96371508 eV
 
CRYSTAL
PRIMVEC
4.055505 8.676003 4.209652 
8.131350 -4.363590 -4.205200 
6.124749 6.361106 -0.013833 
PRIMCOORD
131 1
Li	      8.22841      6.23852    -10.28376         0.002173     -0.004401     -0.018523
Li	      8.14605      0.16233     -4.25725         0.005080      0.003698      0.019605
Li	     12.26033      4.04760    -12.40459        -0.003910     -0.005534     -0.009254
Li	      6.09356      6.63924     -0.02896         0.012694      0.013983      0.008618
Li	     10.24901     10.57436     -8.22010         0.001259     -0.008818     -0.009918
Li	     10.17676      4.50348     -2.12570         0.016549      0.024380      0.008871
Li	     14.28948      8.40122    -10.27986         0.000360      0.011906     -0.011692
Li	      4.06798      0.12203     -4.14445        -0.000867      0.009336      0.022455
Li	     12.22628     12.78963     -8.19042        -0.007893      0.008816     -0.004729
Li	     12.15598      6.52771     -2.08546        -0.001913      0.000655      0.018033
Li	     12.23293      1.98961    -14.49878        -0.003461      0.006346     -0.008366
Li	      6.01885      4.14202     -2.08561        -0.001073     -0.010471      0.012384
Li	     10.19969      8.42881    -10.29542         0.005230     -0.009818     -0.014527
Li	     10.15372      2.20274     -4.19959         0.009841     -0.000374      0.009172
Li	     14.26261      6.30255    -12.40424         0.004045     -0.005110     -0.017656
Li	      6.02703      2.22456     -4.14228         0.006030     -0.006667     -0.013089
Li	     10.18359      6.15245    -12.38205        -0.022455     -0.015093     -0.001919
Li	     10.13948      0.00942     -6.29296        -0.016403     -0.001573      0.030784
Li	     14.26770      3.98472    -14.45093        -0.002928      0.007640     -0.009321
Li	      8.06721      6.63666     -2.06018         0.007096     -0.009975      0.015919
Li	     12.18777     10.49028    -10.25128        -0.000042     -0.012116     -0.012417
Li	     12.13145      4.45114     -4.16453         0.004145      0.003285      0.013991
Li	     16.29411      8.35126    -12.33528         0.000751     -0.020047     -0.018317
Mn	      8.09517      4.27412     -4.14869         0.014695     -0.002535     -0.010833
Mn	     10.16868      6.39021     -8.19030         0.018193     -0.040620      0.019280
Mn	     12.17722      8.45677    -12.37730        -0.013465     -0.000257      0.000511
Mn	     12.13411      2.10357     -6.28404        -0.019972     -0.038542      0.044832
Mn	     14.21970      4.20747    -10.28888         0.003259     -0.027800     -0.008227
Mn	      8.13928     10.63588    -10.26493         0.017770     -0.037710     -0.025290
Mn	     10.10694      8.63511     -2.05153         0.034235      0.005336     -0.005930
Mn	      8.12272      2.03950    -10.29799         0.035998     -0.039056      0.025487
Mn	     14.20639     12.77584    -10.27765        -0.006785      0.017000     -0.007296
Mn	     14.16141      6.42484     -4.14456        -0.014177     -0.019666      0.049188
Mn	     12.17669     -0.12374    -12.36562         0.006667     -0.005180      0.004011
Mn	      6.11574      6.34499    -12.35375         0.007636      0.029919     -0.020645
Mn	      2.06616      2.15887     -0.02736        -0.015975     -0.008535      0.008086
Mn	      4.00609      4.32734     -4.25193        -0.014328      0.002141      0.028763
Mn	      6.19572      6.31237     -8.07851         0.000747     -0.015306     -0.053529
Mn	      6.09302     -0.02315     -2.09480        -0.013674     -0.012290     -0.000975
Mn	      8.04419      2.22547     -6.45890         0.009766     -0.008836      0.001689
Mn	     10.27347      4.08421    -10.12449        -0.017272     -0.006350     -0.021722
Mn	      4.05281      6.52491      2.10385         0.021583      0.005973     -0.001019
Mn	      6.01959      8.71299     -2.20474         0.014805      0.031828      0.051189
Mn	      8.21434     10.65934     -5.95628         0.000731     -0.013202     -0.039427
Mn	      8.13484      4.29525      0.01017         0.010127      0.017973      0.017356
Mn	     10.06677      6.56896     -4.34922         0.021421      0.021351      0.010800
Mn	     12.29333      8.42480     -8.02494        -0.008181     -0.003296     -0.016677
Mn	      2.06407      0.03409     -2.12653        -0.007138     -0.005079      0.019877
Mn	      8.14370     10.78588     -2.08098         0.006895      0.009644      0.013824
Mn	      6.18689      4.23008    -10.28909         0.012629      0.032227     -0.035680
Mn	      6.13137     -2.12751     -4.20593         0.005345     -0.002507      0.008237
Mn	     12.21470      8.59879     -4.17449        -0.028123      0.043812     -0.012924
Mn	     10.21932      2.01841    -12.42649        -0.023225      0.019503      0.015428
Mn	      4.08633      4.34507     -0.03012        -0.001853     -0.037564      0.028082
Mn	      6.13186      6.42066     -4.19804        -0.026374      0.047407     -0.001691
Mn	      8.22867      8.56802     -8.20116         0.026864      0.026660     -0.056505
Mn	      8.18398      2.15627     -2.09702        -0.020206     -0.050494      0.028027
Mn	     10.19627      4.27559     -6.27950        -0.017832      0.033687     -0.023910
Mn	     12.26100      6.36364    -10.32220        -0.035961      0.016527      0.011050
O	      4.12049     -0.29047     -2.10653         0.077564      0.003381      0.007576
O	      6.02581      1.85846     -6.14609        -0.100320     -0.037467     -0.005987
O	      8.15297      4.04067    -10.38979        -0.023844     -0.015683      0.011647
O	      8.23041     -2.44148     -4.19176         0.063764     -0.018621      0.011285
O	     10.09238     -0.34812     -8.23776        -0.052913     -0.015413     -0.005676
O	     12.16076      1.86207    -12.50894        -0.071968     -0.026895      0.009036
O	      6.15250      4.07844     -0.00318         0.063404     -0.015033     -0.010396
O	      8.06066      6.17916     -4.02750        -0.075487     -0.057338     -0.012432
O	     10.20883      8.38802     -8.28766         0.003169     -0.023354     -0.002720
O	     10.15394      1.90419     -2.11262        -0.046174      0.022635     -0.007282
O	     12.14236      4.02239     -6.12963        -0.052416     -0.030081     -0.015290
O	     14.22662      6.19875    -10.42035        -0.022331     -0.037693     -0.006977
O	      6.23246      2.00941     -1.98595         0.056121      0.031009     -0.017952
O	      8.26212      4.14102     -6.06015         0.040130      0.083263      0.071107
O	     10.28102      6.22350    -10.23793         0.062321      0.041367      0.021524
O	     10.11230     -0.21705     -4.07705        -0.046410      0.020407     -0.006453
O	     12.30208      1.87235     -8.22942         0.036437     -0.001594     -0.010098
O	     14.30503      3.98690    -12.31855        -0.025827     -0.006565      0.048001
O	      8.03538      6.25718      0.13220        -0.053950     -0.009491     -0.011300
O	     10.27774      8.49257     -3.95843         0.043368      0.070420      0.054058
O	     12.28179     10.55300     -8.12611         0.033990      0.051274      0.021107
O	     12.13110      4.11816     -2.03398        -0.066557     -0.007908     -0.047938
O	     14.31670      6.23672     -6.10479         0.027302      0.005663     -0.009058
O	     16.32657      8.32057    -10.19478        -0.034506     -0.018982      0.041909
O	      4.00503      2.31118     -4.31489         0.006550      0.019395     -0.040058
O	      6.00706      4.41086     -8.34728        -0.036618     -0.005440      0.020865
O	      8.19541      6.51590    -12.49617         0.005338     -0.017330      0.040466
O	      8.04204      0.09230     -6.34266        -0.040177     -0.040289     -0.015129
O	     10.04963      2.16651    -10.51307        -0.063111     -0.074096     -0.061348
O	     12.29697      4.33667    -14.61967         0.049519     -0.000998      0.014910
O	      6.02971      6.69455     -2.17564         0.021478      0.004039     -0.051026
O	      8.05087      8.76765     -6.25993        -0.016305      0.002807      0.012812
O	     10.23197     10.91457    -10.35870         0.061357      0.005232     -0.002251
O	     10.08206      4.42928     -4.24372        -0.055934     -0.051314     -0.011622
O	     12.10849      6.50308     -8.41410        -0.034924     -0.064069     -0.056007
O	     14.36159      8.68091    -12.51650         0.058888     -0.009324     -0.042520
O	      3.99037      2.40875      0.10325        -0.057736      0.012673      0.000476
O	      6.14105      4.43076     -4.05133         0.065994      0.032363     -0.006473
O	      8.25266      6.66015     -8.32137         0.072198      0.011353      0.007564
O	      8.08548      0.19166     -2.07545        -0.077930      0.055768     -0.007190
O	     10.18415      2.28414     -6.19139         0.049191      0.019500      0.001232
O	     12.28433      4.45855    -10.43807         0.097802      0.019513      0.013664
O	      6.01657      6.72918      2.12323        -0.060604      0.001582     -0.005884
O	      8.14137      8.79048     -1.95407         0.039509      0.035192     -0.006704
O	     10.22507     10.99459     -6.24434         0.026218      0.007156      0.012248
O	     10.13402      4.53794      0.03903        -0.041804     -0.014082     -0.000623
O	     12.18562      6.60863     -4.08655         0.036765      0.024907     -0.008331
O	     14.29897      8.78867     -8.31157         0.072997      0.031739      0.001436
O	      1.95880      1.94827     -2.18229        -0.008532      0.008583     -0.064663
O	      4.10555      4.00601     -6.28001        -0.004188     -0.018789     -0.050686
O	      6.17410      6.21536    -10.28826        -0.010025     -0.030193      0.093793
O	      6.12170     -0.16822     -4.26572        -0.002999      0.048673     -0.062703
O	      8.20036      1.81693     -8.42724        -0.016629     -0.031107     -0.090982
O	     10.22115      4.00105    -12.53135        -0.005756     -0.048293      0.008738
O	      4.08444      6.28657     -0.08701        -0.009014      0.004078     -0.067556
O	      6.13279      8.32353     -4.21037         0.008542     -0.030550     -0.072850
O	      8.19043     10.55407     -8.29446         0.000676     -0.015730      0.019071
O	      8.18372      4.08690     -2.16038        -0.018279     -0.013528     -0.073621
O	     10.22409      6.16780     -6.31921         0.013813     -0.051373     -0.099337
O	     12.26134      8.34040    -10.41602         0.012745     -0.062498      0.003564
O	      4.02193      4.52910     -2.04559         0.005783      0.031572     -0.046773
O	      6.08567      6.66989     -6.08919         0.005551      0.019762      0.042073
O	      8.14302      8.69917    -10.18422        -0.002961     -0.008772      0.043400
O	      8.10658      2.27996     -4.04997         0.003115      0.061719      0.044807
O	     10.12619      4.49824     -8.15103         0.007088      0.042054      0.091281
O	     12.18856      6.50986    -12.32285         0.018556     -0.035734      0.067679
O	      6.06639      8.80763      0.10330        -0.004988      0.030516     -0.069638
O	      8.09356     11.02219     -3.95846        -0.000435      0.042638      0.070160
O	     10.15585     13.09058     -8.07515         0.002273      0.002968      0.059235
O	     10.10976      6.64806     -1.94620        -0.003121      0.039510      0.011475
O	     12.14699      8.82645     -6.04793        -0.011098      0.057840      0.095218
O	     14.21053     10.82106    -10.20787         0.007221     -0.023133      0.056577
