# total energy = -925.42689012 eV
 
CRYSTAL
PRIMVEC
4.119727 8.482803 4.175706 
8.450213 -4.341701 -4.199399 
6.278631 6.309552 -0.013015 
PRIMCOORD
139 1
Li	      6.43918      4.25982     -6.39469         0.007606      0.014863     -0.000471
Li	      8.37978      6.29298    -10.42756        -0.000241     -0.001721     -0.007624
Li	      8.44191     -0.08977     -4.23119        -0.004109     -0.023332      0.003405
Li	     10.52243      2.06834     -8.40096        -0.000563      0.013351     -0.008194
Li	     12.60852      4.13270    -12.51846         0.003691     -0.000348     -0.001060
Li	      6.29226      6.42310     -0.02625         0.001060      0.014292     -0.005590
Li	     10.41793     10.59067     -8.34359         0.006236      0.004492      0.000387
Li	     10.46624      4.18362     -2.10404        -0.005806      0.006077     -0.002104
Li	     12.58930      6.16908     -6.33069        -0.003421     -0.009700     -0.007232
Li	     14.70018      8.37613    -10.36600        -0.011305      0.002174      0.001800
Li	      4.24922      0.07654     -4.15186         0.002115      0.016928     -0.002924
Li	      8.39727      4.18219    -12.54171         0.003593      0.010362     -0.002003
Li	     12.54447      6.24049     -2.12928        -0.004444     -0.008735     -0.001345
Li	     14.66371      8.34886     -6.28394        -0.001393     -0.007460      0.002137
Li	     12.63954      1.98387    -14.62599        -0.003585      0.003309     -0.002606
Li	      6.28372      4.13965     -2.12629         0.001768     -0.004074     -0.004275
Li	     10.39195      8.32051    -10.40804         0.003516     -0.015858      0.007475
Li	     10.45568      2.00214     -4.25723         0.006882      0.007155      0.004799
Li	     12.58955      4.14576     -8.36854        -0.012643      0.019352      0.004401
Li	     14.71631      6.24541    -12.48957        -0.010362     -0.000442     -0.011073
Li	      6.28054      2.02399     -4.17856        -0.003355     -0.003599     -0.003558
Li	     10.47260      6.24435    -12.57214         0.004096     -0.018365      0.002275
Li	     10.50680     -0.20891     -6.34414        -0.003989     -0.002819      0.005981
Li	     12.59418      2.01692    -10.39104        -0.000160      0.004502      0.012523
Li	     14.71118      4.01693    -14.66114        -0.006491     -0.002027     -0.002541
Li	      8.33511      6.40200     -2.09801         0.007101      0.003317      0.007803
Li	     10.27200      8.32695     -6.15055         0.010864     -0.024546      0.006207
Li	     12.48075     10.48467    -10.38576         0.004526     -0.002980      0.008994
Li	     12.58093      4.10703     -4.22373         0.004293     -0.007117      0.001225
Li	     14.66925      6.18031     -8.33841        -0.005766     -0.008553      0.006836
Li	     16.73392      8.30050    -12.53357        -0.004096      0.003244     -0.007367
Mn	      8.34656      4.11245     -4.17904         0.149015     -0.072155      0.266561
Mn	     10.31105      6.19721     -8.30207         0.005685     -0.045678      0.014732
Mn	     12.51015      8.38724    -12.50331        -0.004395     -0.007100     -0.002924
Mn	     12.58662      1.98506     -6.30542        -0.003830      0.013520      0.003441
Mn	      6.27267      8.46048     -6.18972        -0.018238     -0.010165      0.013552
Mn	     16.75132      6.15723    -14.63988         0.003681     -0.003060      0.002295
Mn	     10.37791      8.38300     -2.12786         0.008842     -0.013089      0.006057
Mn	     12.44170     10.46743     -6.23388         0.009177      0.004755      0.004052
Mn	     14.59207     12.58119    -10.43894         0.000397     -0.008105      0.011341
Mn	      6.19658     10.52161      0.00951        -0.000744     -0.026661      0.004606
Mn	     12.61624     -0.05715    -12.50096         0.012325     -0.015079     -0.011300
Mn	     18.81467     10.41559    -12.54349         0.001775     -0.002815      0.005592
Mn	      2.12179      2.09945     -0.04990         0.006688     -0.010753     -0.003792
Mn	      4.22121      4.18789     -4.17031         0.006834      0.002154      0.009399
Mn	      6.29126      6.36772     -8.29861         0.005124      0.008469     -0.003837
Mn	      6.32891     -0.07649     -2.11343        -0.008763     -0.002421     -0.006978
Mn	      8.37083      2.00445     -6.38313        -0.027522      0.041428      0.009813
Mn	     10.44650      4.15789    -10.42268         0.003831      0.006550      0.013352
Mn	      4.12674      6.38217      2.07111         0.007362     -0.002769      0.001209
Mn	      6.28767      8.46121     -2.12534        -0.003816      0.005075      0.014662
Mn	      8.36066     10.58884     -6.16186        -0.003531     -0.003736     -0.012460
Mn	      8.36499      4.16922      0.00031        -0.001718      0.008987     -0.024045
Mn	     10.42897      6.22025     -4.23658         0.009389      0.029027      0.008712
Mn	     12.50691      8.37388     -8.33218        -0.000929     -0.015219      0.002042
Mn	      2.18391      0.03091     -2.11658         0.008302     -0.008824     -0.015000
Mn	      4.29299      2.14040     -6.33267         0.007718     -0.003931      0.009704
Mn	      6.35029      4.21254    -10.42587         0.011849      0.013615     -0.004720
Mn	      6.36767     -2.17188     -4.21530        -0.006855      0.021370     -0.018120
Mn	     12.57127      8.31584     -4.24773        -0.013308      0.001546      0.031292
Mn	     10.55410      2.07793    -12.53307        -0.003914      0.033435      0.001600
Mn	      4.19375      4.24588     -0.05542         0.006378     -0.004271      0.012062
Mn	      6.40202      6.39468     -4.22448        -0.006366      0.059005      0.003605
Mn	      8.36633      8.46591     -8.36138         0.006418     -0.018444      0.008559
Mn	      8.42293      2.02847     -2.12660        -0.017813     -0.074150     -0.019583
Mn	     10.44106      4.14077     -6.34709         0.053744      0.011202     -0.017032
Mn	     12.58714      6.30524    -10.42166        -0.009050     -0.000737      0.005540
O	      4.36578     -0.26901     -2.12356         0.031518      0.007999     -0.002174
O	      6.43436      1.82369     -6.21621         0.025904     -0.004617     -0.005952
O	      8.48182      3.95241    -10.53999         0.015539     -0.003695     -0.005660
O	      8.56508     -2.40041     -4.22366         0.026781      0.003809      0.005692
O	     10.45608     -0.33813     -8.43140        -0.074556      0.030907     -0.004548
O	     12.74804      1.91887    -12.54765         0.019843     -0.035551      0.004754
O	      6.37118      3.99796     -0.03339         0.018145     -0.004290     -0.001386
O	      8.48837      5.98734     -4.09323         0.024831      0.240093      0.007181
O	     10.31512      8.22827     -8.36458        -0.059897      0.032327     -0.001378
O	     10.44710      1.84442     -2.12844        -0.059668      0.024485     -0.001688
O	     12.71789      3.93895     -6.27519         0.007283     -0.008494     -0.003322
O	     14.81039      6.10146    -10.42885         0.019109      0.011522     -0.001271
O	      6.48411      1.92183     -2.05665         0.064278      0.037020     -0.040456
O	      8.30767      3.91408     -6.03996        -0.069541     -0.044716     -0.429260
O	     10.35189      6.12449    -10.28718        -0.006844      0.023622      0.000358
O	     10.45739     -0.28021     -4.11283        -0.001957      0.008256      0.010087
O	     12.57453      1.77416     -8.28261        -0.000236     -0.024747     -0.014442
O	     14.78907      4.03428    -12.43455         0.038004      0.018827     -0.009585
O	      8.27248      6.11822      0.11354        -0.013952     -0.028408     -0.012854
O	     10.61408      8.17411     -4.12622         0.061877      0.028585     -0.021360
O	     12.45199     10.30875     -8.25015        -0.020476     -0.026115      0.004358
O	     12.46189      3.97317     -2.00851        -0.008787     -0.005908     -0.000630
O	     14.60185      6.07133     -6.16040        -0.000033      0.015802     -0.008755
O	     16.69121      8.26095    -10.27372        -0.017431      0.023366      0.057051
O	      4.27075      2.27771     -4.36334         0.044150      0.014425     -0.007280
O	      6.12089      4.41889     -8.42132        -0.060533     -0.020119      0.006247
O	      8.48882      6.46191    -12.67573         0.001922      0.005105      0.004666
O	      8.49404      0.00336     -6.48884         0.028581     -0.031752     -0.072233
O	     10.59096      2.20138    -10.57952         0.006416     -0.026133     -0.002746
O	     12.70775      4.26076    -14.74957         0.016114     -0.009272     -0.000217
O	      6.36868      6.49625     -2.23727         0.001888     -0.017827     -0.013451
O	      8.40902      8.68225     -6.46208         0.003987     -0.016663     -0.059767
O	     10.47692     10.74967    -10.57990         0.014334      0.014428      0.008721
O	     10.36318      4.21576     -4.30036         0.062780     -0.029742     -0.018378
O	     12.61867      6.45215     -8.44567         0.020085      0.019406      0.015617
O	     14.66962      8.48490    -12.64159         0.007535      0.014613     -0.053943
O	      4.15060      2.30449      0.11621        -0.006262      0.016245      0.001694
O	      6.40516      4.35317     -4.14835        -0.189474     -0.018641     -0.036267
O	      8.22087      6.56980     -8.41961        -0.029774      0.057697     -0.003349
O	      8.31432      0.08294     -2.08923        -0.024174      0.041607     -0.016046
O	     10.36259      2.17093     -6.31814        -0.012030      0.000695      0.011543
O	     12.45911      4.35764    -10.47334        -0.019416     -0.004806      0.009137
O	      6.12752      6.51707      2.09632        -0.021602      0.005918      0.005107
O	      8.25050      8.63529     -2.01617        -0.018629      0.000250     -0.007880
O	     10.30035     10.77624     -6.33545        -0.014798     -0.002647      0.005433
O	     10.33467      4.32184      0.00483        -0.034776     -0.017930     -0.011005
O	     12.43229      6.34318     -4.21356        -0.033119      0.031303     -0.006511
O	     14.75889      8.59226     -8.29946         0.061923     -0.019769      0.004671
O	      2.00436      1.97938     -2.22073        -0.001270      0.013933     -0.010726
O	      4.24898      4.14577     -6.30470        -0.001044      0.019840     -0.003427
O	      6.32015      6.18802    -10.56258        -0.005172      0.002311     -0.011738
O	      6.37220     -0.21310     -4.31109        -0.001074      0.015149     -0.004766
O	      8.55351      1.72643     -8.50477        -0.010050     -0.052982      0.003025
O	     10.52099      4.04684    -12.66134         0.001969     -0.002142     -0.017007
O	      4.15969      6.20839     -0.12917        -0.010906     -0.009947     -0.016080
O	      6.14699      8.35763     -4.26857        -0.004176     -0.002984     -0.025569
O	      8.35478     10.43879     -8.49730        -0.009730     -0.022210     -0.010769
O	      8.42932      3.95319     -2.22696        -0.012694     -0.005921      0.300048
O	     10.56174      6.08695     -6.38730         0.002699     -0.007651     -0.006106
O	     12.57522      8.28763    -10.37248         0.007609      0.005092      0.037397
O	      4.15436      4.38072     -2.07206         0.005906     -0.008596     -0.066344
O	      6.15508      6.51129     -6.14230        -0.000745     -0.010293      0.028497
O	      8.31254      8.54873    -10.34152         0.003849     -0.007722      0.055839
O	      8.38480      2.13860     -4.06685        -0.004539     -0.180190      0.049091
O	     10.57301      4.24052     -8.26800         0.010966      0.009915     -0.019321
O	     12.52921      6.45685    -12.39500         0.005224      0.018024      0.014043
O	      6.23290      8.55365      0.11593        -0.001910     -0.004473      0.018838
O	      8.18459     10.87415     -4.05293         0.008694      0.057563      0.011387
O	     10.35584     12.79951     -8.26415        -0.001925     -0.007408      0.004084
O	     10.41132      6.39920     -1.99542         0.003431     -0.008623      0.018541
O	     12.49174      8.47093     -6.26133         0.011227     -0.009872      0.029701
O	     14.59553     10.61026    -10.31844        -0.000562     -0.019995      0.002565
