# total energy = -796.55905859 eV
 
CRYSTAL
PRIMVEC
3.829247 8.716638 3.901326 
7.901399 -4.470874 -3.941392 
5.818515 6.599955 -0.013711 
PRIMCOORD
115 1
Li	      8.01195      0.06926     -4.12489        -0.000050      0.005504     -0.012226
Li	      5.87753      6.52473     -0.05504         0.022487      0.008562     -0.011382
Li	      3.94468      0.10685     -3.95044        -0.011500      0.021709      0.008496
Li	      5.75343      4.07518     -2.02242         0.014630      0.013210      0.000649
Li	      5.78142      2.13354     -3.95600         0.002567     -0.022872      0.009902
Li	      7.70790      6.33189     -2.02874        -0.012285     -0.019625      0.003999
Li	     11.58365      4.15616     -3.85184        -0.004524      0.037177     -0.001876
Mn	      7.76346      4.25601     -4.02902        -0.027562      0.032315     -0.008925
Mn	      9.68816      6.53929     -7.95091         0.053647     -0.011820     -0.019937
Mn	     11.63112      8.78645    -11.82079         0.013715     -0.047718     -0.012496
Mn	     11.65377      2.04921     -5.94231        -0.040389      0.018469     -0.063614
Mn	     13.61264      4.25139     -9.94314         0.064489     -0.006112     -0.005033
Mn	     15.60378      6.49950    -13.80231         0.013202     -0.061995     -0.035411
Mn	      9.65440      8.67026     -2.13393         0.003880      0.004998     -0.021836
Mn	     11.60909     10.87561     -6.01546         0.071055     -0.044734      0.014892
Mn	      9.75688      4.36753    -13.79159         0.075610     -0.054173     -0.026303
Mn	     13.60172      6.40480     -3.94082        -0.005190      0.046773     -0.018078
Mn	     15.53457      8.62169     -8.00211         0.036490     -0.019552      0.020585
Mn	     13.65827      2.17744    -15.78820         0.031598      0.043069     -0.048944
Mn	      1.98558      2.17246      0.05733        -0.005998     -0.001507     -0.001353
Mn	      3.80377      4.36189     -4.09246        -0.030720     -0.007655      0.016680
Mn	      5.81701      6.56093     -8.02612        -0.012461     -0.010618      0.020546
Mn	      5.93501     -0.06542     -1.84662         0.005654     -0.015853     -0.038499
Mn	      7.82187      2.15089     -6.11839        -0.011458     -0.010533      0.016936
Mn	      9.77443      4.35558     -9.95268         0.007058     -0.007722     -0.017107
Mn	      3.86235      6.52710      2.06292         0.000725     -0.008145      0.030742
Mn	      5.73517      8.75746     -2.18202        -0.003802      0.059994      0.013038
Mn	      7.72419     10.91001     -6.05566        -0.009007     -0.002540      0.008893
Mn	      7.87955      4.27352      0.07353        -0.002023     -0.025711     -0.028986
Mn	      9.72896      6.50314     -4.13138         0.022887      0.047304      0.012884
Mn	     11.68808      8.70047     -8.00065         0.024579      0.009219      0.003498
Mn	      2.04628      0.02364     -1.91113         0.017707      0.049913     -0.000055
Mn	      7.73935     10.88571     -2.22737        -0.028192      0.034711      0.042483
Mn	      9.73309     13.08486     -6.11479        -0.054982     -0.033543      0.073735
Mn	      6.00668     -2.20554     -4.02365         0.003740     -0.000578      0.004556
Mn	     11.76060      8.62251     -4.18276        -0.012294      0.020603      0.059435
Mn	      9.87519      2.15899    -11.96350        -0.072265      0.001999     -0.013557
Mn	      3.91304      4.40100     -0.00367        -0.003840     -0.071261     -0.010478
Mn	      5.83590      6.47940     -4.17478        -0.032410      0.063453      0.037214
Mn	      7.80936      8.73106     -8.06056        -0.054161      0.007569      0.007489
Mn	      7.93337      2.16887     -1.99921        -0.041977     -0.031058      0.023372
Mn	      9.80843      4.29703     -6.13663        -0.025374      0.013101      0.040214
Mn	     11.78553      6.53903    -10.00491        -0.059925      0.022942     -0.001405
O	      3.97280     -0.29187     -2.01977        -0.079248     -0.025431      0.024366
O	      5.82344      1.87683     -5.95414        -0.065304     -0.029416     -0.017939
O	      7.81980      4.05898     -9.94399         0.049984      0.005357     -0.006175
O	      7.87532     -2.48104     -3.93009        -0.076810     -0.015978     -0.016827
O	      9.80232     -0.41428     -7.88255        -0.060921     -0.018824     -0.007577
O	     11.77599      1.81102    -11.86951         0.050235     -0.021380     -0.036952
O	      5.84516      4.15978     -0.04626        -0.053986     -0.008254     -0.013869
O	      7.72708      6.17695     -4.00084        -0.106286     -0.055615     -0.018808
O	      9.73391      8.43217     -7.94702         0.039927     -0.017004     -0.027612
O	      9.82233      1.81801     -1.92207         0.059864      0.011307     -0.003554
O	     11.70524      3.98960     -5.87559        -0.070309     -0.033112     -0.003455
O	     13.68856      6.16161     -9.91758         0.045258     -0.018869     -0.003117
O	      5.98446      1.97535     -1.87696         0.040709      0.031787      0.016699
O	      7.88028      4.06241     -5.96691         0.029812      0.025359      0.045857
O	      9.85160      6.31621     -9.87413         0.027288     -0.040612      0.008020
O	      9.88939     -0.32202     -3.79409         0.035070      0.025988      0.026392
O	     11.78660      1.79957     -7.85769         0.007277      0.007710      0.038003
O	     13.78658      4.02850    -11.89237         0.026719     -0.028129      0.007851
O	      7.82110      6.26572      0.05011        -0.004813      0.044049      0.029647
O	      9.81673      8.42232     -4.05181         0.017860      0.009874      0.038983
O	     11.77125     10.65225     -7.94296         0.025781     -0.024822      0.007848
O	     11.85543      4.02399     -1.90094        -0.012035      0.007706      0.081992
O	     13.71701      6.18846     -5.91912         0.027557      0.015757      0.048360
O	     15.70814      8.38830     -9.94995         0.040263     -0.022896      0.003784
O	      3.85753      2.35525     -4.16113         0.005206     -0.027322     -0.027336
O	      5.74082      4.59688     -8.10735        -0.000560      0.013731     -0.042670
O	      7.71477      6.85143    -11.97567        -0.040253     -0.013151     -0.025785
O	      7.74337      0.18906     -6.10699        -0.017133     -0.021339     -0.042496
O	      9.70529      2.40180    -10.02762        -0.027703      0.019516     -0.011459
O	     11.67544      4.60735    -14.04360        -0.051444      0.002664     -0.030086
O	      5.75325      6.75753     -2.12585         0.010145     -0.053051     -0.071399
O	      7.64343      8.94747     -6.13058        -0.013682      0.021339     -0.021940
O	      9.61483     11.20793    -10.00890        -0.018646      0.038541     -0.039756
O	      9.68565      4.52737     -4.17733        -0.030985     -0.019094     -0.033937
O	     11.61272      6.75786     -8.05877        -0.029071      0.007141     -0.010734
O	     13.61642      8.98656    -12.04083        -0.015387     -0.002587     -0.050001
O	      3.94891      2.50502      0.04079         0.099402      0.040338      0.010017
O	      5.81463      4.49172     -3.96890         0.095936     -0.011961      0.009534
O	      7.76945      6.83807     -8.06750        -0.040531      0.002316      0.024643
O	      7.86891      0.23589     -2.08536         0.077276      0.027022     -0.009896
O	      9.79311      2.38568     -6.03405         0.092192      0.001310     -0.001331
O	     11.70970      4.63068    -10.05635        -0.066003     -0.011488      0.043656
O	      5.83996      6.79166      1.91037        -0.048495      0.015792      0.008580
O	      7.72350      8.91986     -2.03856         0.053615     -0.007558      0.000046
O	      9.68152     11.19168     -6.11125        -0.044744      0.035745      0.005800
O	      9.80197      4.60981     -0.09269         0.091404      0.023417      0.029337
O	     11.72942      6.67534     -4.05094         0.097549     -0.003635      0.032267
O	     13.63540      8.97388     -8.09896        -0.033331      0.010090      0.046355
O	      2.06549      1.90359     -1.96116        -0.024175     -0.057181     -0.038287
O	      3.88856      4.04869     -6.09884         0.020830     -0.031346     -0.082765
O	      5.89533      6.29286     -9.97922        -0.018878      0.001663      0.048268
O	      5.93957     -0.22518     -4.08578        -0.016637      0.009757     -0.071399
O	      7.88753      1.80816     -8.05122        -0.017816     -0.040216     -0.110215
O	      9.88019      4.08196    -11.92527        -0.032498      0.001190      0.011196
O	      3.95035      6.35972      0.00222        -0.015804     -0.003520      0.049287
O	      5.79546      8.37000     -4.14608         0.003346     -0.061837     -0.099519
O	      7.77517     10.64616     -7.98741        -0.024960     -0.011645      0.004354
O	      7.77592      4.10152     -2.07774         0.003037      0.006461     -0.107189
O	      9.78116      6.19753     -6.06544        -0.011230     -0.026418     -0.061830
O	     11.81769      8.45848     -9.94460        -0.035459     -0.004893      0.038438
O	      3.87767      4.62459     -1.91385         0.002998      0.030115      0.077242
O	      5.69265      6.79883     -6.05512         0.000500     -0.004512     -0.044489
O	      7.71042      9.07568     -9.94614        -0.002989      0.050600      0.061084
O	      7.73597      2.32114     -3.97219         0.021969      0.040212      0.071249
O	      9.70018      4.61816     -8.01614         0.019630     -0.007697     -0.032535
O	     11.67004      6.90069    -11.85523         0.025380      0.043397      0.102397
O	      5.76438      8.90870      0.03798        -0.012055     -0.009663      0.073042
O	      7.62930     11.17523     -4.11630         0.027700      0.001069     -0.021591
O	      9.62920     13.45544     -8.01445        -0.019501      0.006083     -0.057179
O	      9.59563      6.75891     -2.08421         0.004687      0.019408      0.048723
O	     11.62841      8.95514     -6.05981         0.024080      0.005415     -0.036286
O	     13.60926     11.20225     -9.93161         0.015863      0.083966      0.091943
