# total energy = -791.75230354 eV
 
CRYSTAL
PRIMVEC
3.769987 8.706367 3.912135 
7.880938 -4.510459 -3.974719 
5.782551 6.587933 -0.013747 
PRIMCOORD
114 1
Li	      7.60900      8.31228     -0.15959         0.006775     -0.022565      0.007557
Li	      5.93576      2.52519     -7.92248        -0.001046      0.005022     -0.004349
Li	     11.71068      2.11523    -13.99442         0.007340      0.003112     -0.008154
Li	      5.72400      3.95909     -2.11565         0.006775     -0.022566      0.007557
Li	      7.82075      6.87838     -5.96642        -0.001047      0.005022     -0.004349
Li	     13.59567      6.46841    -12.03835         0.007342      0.003106     -0.008152
Mn	      7.72386      4.25052     -4.04058         0.063388     -0.037673     -0.007887
Mn	      9.65426      6.47745     -8.02062        -0.015921     -0.024759      0.022623
Mn	     11.54596      8.69458    -11.94332         0.075482     -0.026326     -0.080981
Mn	     11.64161      2.05543     -5.93938        -0.013387      0.008776     -0.070302
Mn	     13.54170      4.23999     -9.93903         0.033483     -0.003939     -0.092541
Mn	     15.48752      6.37779    -14.05318        -0.008932      0.026107      0.025776
Mn	      9.60886      8.60370     -2.08451         0.063387     -0.037673     -0.007887
Mn	     11.53925     10.83063     -6.06455        -0.015927     -0.024758      0.022625
Mn	      9.66096      4.34139    -13.89939         0.075481     -0.026324     -0.080982
Mn	      9.75662     -2.29775     -7.89545        -0.013385      0.008775     -0.070303
Mn	     11.65671     -0.11319    -11.89510         0.033471     -0.003964     -0.092551
Mn	     17.37252     10.73097    -12.09711        -0.008932      0.026108      0.025773
Mn	      1.90674      2.12667     -0.05348        -0.015383      0.022543      0.012599
Mn	      3.80855      4.41171     -4.05382        -0.005983     -0.011650     -0.004328
Mn	      5.79218      6.54153     -8.01291         0.005634      0.004670     -0.008452
Mn	      5.83528     -0.06410     -2.01061         0.010855     -0.015867     -0.016608
Mn	      7.85113      2.03772     -5.98901        -0.001745     -0.012970     -0.006081
Mn	      9.71411      4.31938    -10.02415        -0.011064     -0.003235      0.016276
Mn	      3.79174      6.47985      1.90259        -0.015383      0.022543      0.012598
Mn	      5.69354      8.76489     -2.09775        -0.005983     -0.011651     -0.004331
Mn	      7.67717     10.89471     -6.05684         0.005629      0.004630     -0.008460
Mn	      7.72027      4.28908     -0.05455         0.010854     -0.015867     -0.016608
Mn	      9.73612      6.39090     -4.03294        -0.001745     -0.012970     -0.006081
Mn	     11.59910      8.67257     -8.06809        -0.011067     -0.003239      0.016274
Mn	      5.72170      8.66615      1.85689         0.035255      0.015423      0.054842
Mn	      3.94648      2.20795     -5.98730         0.004183     -0.003841     -0.015450
Mn	      9.64334     13.07904     -6.22098        -0.036713      0.011490      0.068546
Mn	      5.98101     -2.26491     -4.06393        -0.068367      0.020555      0.013694
Mn	     11.64762      8.60805     -4.20851        -0.083323      0.002685      0.092898
Mn	      9.78551      2.15472    -12.01073        -0.019520     -0.005474     -0.012657
Mn	      3.83671      4.31296     -0.09918         0.035254      0.015423      0.054842
Mn	      5.83147      6.56113     -4.03124         0.004183     -0.003839     -0.015449
Mn	      7.75835      8.72586     -8.17705        -0.036704      0.011517      0.068558
Mn	      7.86601      2.08828     -2.10786        -0.068365      0.020554      0.013694
Mn	      9.76263      4.25487     -6.16458        -0.083323      0.002687      0.092900
Mn	     11.67051      6.50790    -10.05466        -0.019512     -0.005478     -0.012658
O	      3.88634     -0.32789     -2.06979        -0.078127     -0.028902      0.011064
O	      5.86856      1.84026     -6.08799        -0.080218     -0.003121      0.020802
O	      7.77481      4.04630     -9.97711         0.047403     -0.010954     -0.016782
O	      7.86659     -2.64121     -3.94768         0.050123     -0.015813     -0.025165
O	      9.78710     -0.38766     -7.92786         0.062571     -0.021073     -0.015571
O	     11.72871      1.81094    -12.04861        -0.051227     -0.032092      0.029868
O	      5.77134      4.02530     -0.11372        -0.078127     -0.028901      0.011064
O	      7.75356      6.19344     -4.13193        -0.080218     -0.003120      0.020802
O	      9.65981      8.39948     -8.02104         0.047409     -0.010957     -0.016781
O	      9.75158      1.71198     -1.99162         0.050123     -0.015813     -0.025165
O	     11.67210      3.96552     -5.97179         0.062571     -0.021073     -0.015571
O	     13.61370      6.16412    -10.09255        -0.051241     -0.032093      0.029877
O	      5.91431      1.91527     -1.87240         0.002474     -0.016320      0.036420
O	      7.85182      3.99295     -5.98116         0.044596      0.033572      0.032303
O	      9.76872      6.27191     -9.95936         0.033865     -0.023344      0.015256
O	      9.82021     -0.43965     -3.97159         0.037946      0.005958      0.025009
O	     11.79086      1.85087     -7.88493         0.020081     -0.040689      0.031436
O	     13.69827      4.01257    -11.88887         0.040032      0.023353      0.035805
O	      7.79930      6.26846      0.08367         0.002473     -0.016319      0.036420
O	      9.73682      8.34614     -4.02509         0.044595      0.033573      0.032303
O	     11.65372     10.62509     -8.00329         0.033868     -0.023343      0.015255
O	     11.70520      3.91353     -2.01552         0.037947      0.005959      0.025009
O	     13.67585      6.20406     -5.92887         0.020080     -0.040690      0.031435
O	     15.58326      8.36575     -9.93281         0.040079      0.023449      0.035850
O	      3.80926      2.46045     -4.05090        -0.015638      0.032134     -0.001854
O	      5.72528      4.56563     -8.15876        -0.035476     -0.015519     -0.048343
O	      7.63833      6.75443    -12.17428        -0.023066      0.020956     -0.033194
O	      7.74960      0.09826     -6.16684        -0.040058     -0.011247     -0.046662
O	      9.66885      2.37009    -10.07566        -0.025182      0.015455     -0.007963
O	     11.58618      4.56418    -14.09892        -0.044300     -0.019225     -0.000654
O	      5.69425      6.81364     -2.09483        -0.015638      0.032135     -0.001855
O	      7.61027      8.91881     -6.20269        -0.035465     -0.015515     -0.048327
O	      9.52332     11.10762    -10.21821        -0.023066      0.020957     -0.033194
O	      9.63459      4.45144     -4.21077        -0.040058     -0.011247     -0.046663
O	     11.55384      6.72327     -8.11959        -0.025185      0.015455     -0.007961
O	     13.47118      8.91736    -12.14286        -0.044301     -0.019225     -0.000657
O	      3.84217      2.40594     -0.08242        -0.029591      0.049321      0.012732
O	      5.77419      4.62585     -3.95120        -0.050457      0.015773     -0.038779
O	      7.71980      6.80460     -7.98978         0.045438      0.038189     -0.003524
O	      7.78890      0.15438     -1.95167         0.070841      0.005130     -0.035408
O	      9.76994      2.34026     -6.13305         0.088235      0.030792      0.037774
O	     11.65362      4.58632    -10.05425        -0.045025      0.007434      0.027990
O	      5.72717      6.75912      1.87365        -0.029590      0.049321      0.012732
O	      7.65919      8.97903     -1.99513        -0.050459      0.015773     -0.038780
O	      9.60480     11.15778     -6.03371         0.045457      0.038189     -0.003524
O	      9.67390      4.50756      0.00439         0.070841      0.005129     -0.035408
O	     11.65494      6.69345     -4.17698         0.088234      0.030791      0.037774
O	     13.53861      8.93950     -8.09818        -0.045024      0.007435      0.027989
O	      1.94740      1.86171     -2.00776         0.014190     -0.006240      0.018943
O	      3.95626      4.12375     -5.98175        -0.017757     -0.008183      0.038452
O	      5.75971      6.26988    -10.14137         0.007607     -0.022211     -0.063956
O	      5.84948     -0.35703     -4.09552         0.005385     -0.015169     -0.069214
O	      7.75687      1.81441     -8.08665         0.010833     -0.010891     -0.092917
O	      9.77990      4.05823    -11.97803        -0.011333     -0.030726      0.030841
O	      3.83240      6.21489     -0.05169         0.014191     -0.006240      0.018942
O	      5.84125      8.47694     -4.02568        -0.017757     -0.008186      0.038457
O	      7.64471     10.62306     -8.18530         0.007616     -0.022208     -0.063960
O	      7.73447      3.99616     -2.13945         0.005385     -0.015169     -0.069214
O	      9.64186      6.16759     -6.13058         0.010833     -0.010891     -0.092918
O	     11.66489      8.41142    -10.02196        -0.011334     -0.030726      0.030842
O	      3.88148      4.64282     -2.04120        -0.023282      0.006302     -0.044494
O	      5.80122      6.84732     -5.92370        -0.011241      0.025908      0.060981
O	      7.60389      8.98603    -10.09555         0.022203      0.021376     -0.039202
O	      7.73365      2.34645     -3.99407         0.010052      0.027140      0.095856
O	      9.66565      4.57949     -8.07491         0.012213     -0.000074     -0.042257
O	     11.66537      6.79265    -11.94094        -0.005155      0.020894      0.077357
O	      5.76648      8.99600     -0.08513        -0.023283      0.006301     -0.044496
O	      7.68621     11.20051     -3.96763        -0.011239      0.025905      0.060987
O	      9.48888     13.33922     -8.13948         0.022204      0.021376     -0.039201
O	      9.61864      6.69964     -2.03800         0.010052      0.027139      0.095857
O	     11.55065      8.93267     -6.11884         0.012213     -0.000074     -0.042257
O	     13.55037     11.14584     -9.98487        -0.005154      0.020892      0.077357
