# total energy = -814.57071566 eV
 
CRYSTAL
PRIMVEC
3.818541 8.677248 4.101029 
7.863182 -4.483620 -4.070528 
5.753463 6.445429 -0.013486 
PRIMCOORD
118 1
Li	      7.84283      6.54042    -10.34853        -0.001887      0.011592     -0.003026
Li	     11.71605      6.40449     -6.19334        -0.000726      0.000287      0.007724
Li	      3.95448      0.16940     -4.03219         0.006404      0.032940      0.013484
Li	     11.44350     12.54734     -8.22521         0.009983      0.004087     -0.003250
Li	      9.75140     -0.15400    -10.18293        -0.003551     -0.002562      0.005893
Li	      5.88913      4.53247     -1.96535         0.010737      0.050437      0.013835
Li	      9.69958      8.87310    -10.16446         0.002762      0.009191     -0.010517
Li	     11.66558      4.15091     -8.14468         0.001918      0.005226      0.003843
Li	     11.61214      1.87130    -10.07110        -0.003160     -0.007181     -0.010092
Li	     13.44807      4.00796    -14.10208        -0.004428     -0.009979     -0.013282
Mn	      7.72652      4.19885     -4.05359         0.004754      0.009315     -0.001607
Mn	      9.64492      6.37837     -8.08589         0.006129     -0.038824     -0.008209
Mn	      5.79860      2.06658     -0.00507         0.020977     -0.006638     -0.015810
Mn	     11.59605      2.00055     -6.01157         0.027207     -0.044362     -0.000350
Mn	      5.74593      8.60485     -6.04269         0.004197     -0.016603     -0.001965
Mn	     15.45384      6.31142    -14.14874         0.008348      0.058917     -0.085623
Mn	      5.84181     -0.11769     -6.04700        -0.015762     -0.061581     -0.016120
Mn	      7.69776      2.04752    -10.06408         0.023735     -0.020041     -0.048405
Mn	     13.47100     12.84289    -10.14240        -0.011721     -0.009070     -0.040671
Mn	     13.54305      6.29831     -3.98042         0.003663     -0.011217      0.010084
Mn	     15.47748      8.43970     -8.13829         0.023146      0.002611     -0.008647
Mn	     17.35487     10.62680    -12.17920        -0.005770     -0.007337     -0.043773
Mn	      1.88478      2.23926     -0.12562        -0.015783      0.008673      0.041708
Mn	      3.86694      4.23277     -4.00490         0.016135      0.008647      0.003228
Mn	      5.80568      6.37626     -8.08779         0.001491     -0.021599     -0.018765
Mn	      5.85810     -0.09223     -1.99440         0.009171      0.002571     -0.010259
Mn	      7.76705      2.07550     -6.10338         0.031386      0.027280      0.025866
Mn	      9.69899      4.20596    -10.20787         0.006502     -0.001574      0.011145
Mn	      3.79844      6.52793      1.99173        -0.016261      0.009360      0.022708
Mn	      5.78492      8.58795     -2.00044         0.000200     -0.008930     -0.000237
Mn	      7.68085     10.77869     -6.10515        -0.012691     -0.000306     -0.015762
Mn	      7.81277      4.20379      0.06908         0.003476     -0.014548     -0.032491
Mn	      9.66848      6.38626     -4.00761        -0.006002     -0.017985      0.004459
Mn	     11.61036      8.58315     -8.18201         0.008183     -0.016518      0.004001
Mn	      1.97649     -0.01647     -2.06949        -0.020689      0.005977      0.018192
Mn	      7.75902     10.79872     -2.13874        -0.031778     -0.020657      0.058366
Mn	      9.60659     12.97586     -6.16797        -0.000699      0.011482      0.011812
Mn	      9.73096      6.41910     -0.06627        -0.019796      0.005354     -0.009721
Mn	      7.83531     -0.09363     -8.13617        -0.017825     -0.012367     -0.005244
Mn	      9.77728      2.04720    -12.31635        -0.002340      0.005912     -0.016168
Mn	      3.88205      4.35900     -0.00752        -0.011678      0.026407     -0.002647
Mn	      5.85372      6.44650     -4.11254         0.005799      0.008552      0.021622
Mn	      7.76135      8.62644     -8.12415        -0.005063      0.008079     -0.013520
Mn	      7.83912      2.04482     -2.14940        -0.024136      0.005459      0.075111
Mn	      9.70390      4.24363     -6.15962        -0.021091     -0.022887      0.045150
Mn	     11.71200      6.36758    -10.31255        -0.031656      0.034151      0.011921
O	      3.91242     -0.33453     -2.12147        -0.040573     -0.011584      0.014805
O	      5.82551      1.81176     -6.09380         0.021756      0.012031     -0.020800
O	      7.73986      3.99472    -10.27676        -0.072311     -0.009627      0.015143
O	      7.82944     -2.54577     -3.90907        -0.031633     -0.015963     -0.011757
O	      9.79080     -0.44521     -8.22060        -0.043251     -0.005896      0.017867
O	     11.69462      1.70606    -12.08895        -0.050781     -0.007997     -0.003196
O	      5.83559      4.00318     -0.07783        -0.061021     -0.002452      0.017354
O	      7.73650      6.12142     -4.00389        -0.060375     -0.007264     -0.019416
O	      9.67905      8.33089     -8.24981        -0.044525     -0.009472      0.021078
O	      9.72803      1.75414     -1.95747        -0.048898     -0.037298     -0.027080
O	     11.67908      3.96265     -6.18522        -0.055638      0.008289      0.007559
O	     13.61292      6.03477    -10.13738         0.030158     -0.005241     -0.017276
O	      5.90079      1.85068     -1.94657         0.026659     -0.001763      0.036056
O	      7.81173      4.01434     -6.02342         0.027716     -0.011662      0.022241
O	      9.74411      6.14953    -10.07530         0.007744      0.022358      0.015970
O	      9.83148     -0.32454     -3.86890         0.028182      0.002553      0.044464
O	     11.77055      1.75209     -8.06669         0.007981      0.009471      0.014981
O	     13.71991      3.87218    -12.09364         0.028073      0.000008      0.031921
O	      7.82364      6.17511      0.16362         0.029789      0.007895      0.048145
O	      9.76379      8.34872     -3.87776         0.040242      0.003773      0.020822
O	     11.66483     10.54339     -7.95976         0.008599      0.021402      0.039475
O	     11.74620      3.97138     -1.89448         0.037686      0.019005      0.044640
O	     13.65199      6.09145     -5.97860         0.031624      0.018259      0.013862
O	     15.57125      8.24523    -10.08457         0.030113     -0.006754      0.039496
O	      3.79637      2.27278     -4.26061        -0.006297     -0.004484     -0.037619
O	      5.69806      4.45730     -8.32144        -0.036783      0.001480     -0.027023
O	      7.60824      6.68933    -12.34737        -0.016878      0.001225     -0.039101
O	      7.74347      0.12678     -6.19694        -0.018741      0.004941     -0.032563
O	      9.67032      2.24429    -10.29616        -0.020739     -0.021172     -0.005278
O	     11.57249      4.41111    -14.38678        -0.025599     -0.018121     -0.021633
O	      5.68107      6.63247     -2.14753        -0.030826      0.006540     -0.021245
O	      7.65249      8.83273     -6.18797        -0.026423     -0.008947     -0.031734
O	      9.52654     10.97878    -10.29562        -0.023788     -0.017591     -0.029325
O	      9.61949      4.43461     -4.22692        -0.028304      0.011366     -0.048138
O	     11.56220      6.60665     -8.21087        -0.022209     -0.005086     -0.010388
O	     13.45867      8.70267    -12.44091        -0.032272     -0.012224     -0.040962
O	      3.84204      2.42447      0.10527         0.055733      0.010535     -0.023365
O	      5.78877      4.51586     -3.96970         0.025679      0.013616     -0.021322
O	      7.74685      6.67594     -8.28156         0.042959      0.008112      0.002080
O	      7.80544      0.10131     -2.07261         0.035709     -0.003572      0.019427
O	      9.69653      2.32966     -6.18104        -0.026851      0.008979      0.017148
O	     11.66410      4.39803    -10.11351         0.074108     -0.017236      0.000222
O	      5.77123      6.72100      2.15411         0.063714      0.007286     -0.007799
O	      7.71418      8.87999     -1.95621         0.053071      0.013673     -0.004709
O	      9.62739     11.05835     -6.14935        -0.008186     -0.000694      0.027430
O	      9.72373      4.49367     -0.05838         0.062679      0.012510      0.025780
O	     11.63835      6.64031     -4.19090         0.053947      0.003619      0.001545
O	     13.53999      8.78901     -8.06116         0.038878     -0.000661     -0.016516
O	      1.96002      1.88624     -2.14048        -0.009354     -0.032763     -0.097413
O	      3.82199      4.04915     -6.25133        -0.009144     -0.004565     -0.058491
O	      5.85070      6.24125    -10.28788        -0.001375     -0.013732     -0.040713
O	      5.82018     -0.35011     -4.13860        -0.010142     -0.014419     -0.039742
O	      7.85653      1.79806     -8.14026        -0.037347     -0.003573      0.028202
O	      9.65794      3.94202    -12.32918         0.005767     -0.037337     -0.056705
O	      3.86447      6.25364     -0.05882        -0.010470     -0.039180     -0.069718
O	      5.75286      8.35664     -4.14948        -0.005156     -0.020924     -0.060730
O	      7.75894     10.51010     -8.11480        -0.014684     -0.018274      0.032812
O	      7.75977      3.93644     -2.16944        -0.009388     -0.036880     -0.060085
O	      9.76637      6.15298     -6.19833         0.006410     -0.001031     -0.051922
O	     11.60004      8.27035    -10.32749        -0.010702     -0.023201     -0.052589
O	      3.84305      4.58333     -1.91042         0.018145      0.036448      0.063471
O	      5.69954      6.68744     -6.00858        -0.005926      0.028727      0.056633
O	      7.64388      8.83484    -10.04211         0.008513     -0.002756      0.051595
O	      7.69239      2.30793     -4.11309         0.022722      0.003365     -0.038719
O	      9.72947      4.48136     -8.06886        -0.005112      0.033317      0.043776
O	     11.56000      6.60858    -12.21417         0.002470      0.015335      0.045924
O	      5.77872      8.87723      0.12476         0.011391      0.050066      0.054717
O	      7.59110     11.04101     -4.07844         0.025344      0.010466     -0.032726
O	      9.59737     13.21072     -8.06762         0.022347      0.007825      0.051626
O	      9.69320      6.67396     -1.92550         0.011579      0.028605      0.073247
O	     11.62905      8.80385     -5.95857         0.006430      0.029271      0.065099
O	     13.49438     10.94554    -10.08324         0.005975      0.039305      0.077191
