# total energy = -820.32175646 eV
 
CRYSTAL
PRIMVEC
3.833432 8.660725 4.170298 
7.862605 -4.474324 -4.112920 
5.753776 6.374730 -0.013448 
PRIMCOORD
119 1
Li	      3.98980      2.25917     -2.19663         0.007909     -0.000997     -0.018321
Li	     13.63403      8.45787    -10.29173         0.008885     -0.002842     -0.000570
Li	      5.84029      2.18982     -8.17719         0.006071      0.038953      0.007127
Li	     11.60741      6.07499     -2.01261         0.002237     -0.000070     -0.000796
Li	     15.48876     10.52243    -10.18730        -0.007898     -0.017397      0.006111
Li	      5.87614      4.53247     -2.00567        -0.005146     -0.005358     -0.008521
Li	      7.78707      6.58541     -6.10595         0.012539      0.047256      0.013005
Li	      9.86146      2.37554     -4.00191        -0.017418     -0.007568     -0.015099
Li	     13.55231      6.12255    -12.30201         0.001978     -0.014616      0.000633
Li	      9.65707     -0.22460     -6.02674        -0.009437     -0.014081     -0.003604
Li	     13.52950      3.90751    -14.26511        -0.023027     -0.016147      0.015699
Mn	      7.70454      4.19678     -4.08887         0.003567     -0.001116     -0.018892
Mn	      9.64721      6.29486     -8.17972         0.010755      0.014702     -0.003709
Mn	     11.56086      8.45009    -12.21530        -0.004457     -0.017829     -0.010111
Mn	     11.66629      1.95103     -6.09904         0.011980      0.022437     -0.018784
Mn	     13.52642      4.11360    -10.14195         0.020626     -0.034998      0.005673
Mn	     15.51706      6.21640    -14.29493         0.027105     -0.015254      0.006888
Mn	      9.61169      8.50227     -1.91667        -0.007247     -0.000891     -0.045249
Mn	      7.75033      1.97423    -10.19951        -0.008707     -0.018722     -0.012954
Mn	      9.62558      4.13008    -14.23304         0.002000      0.025167     -0.073572
Mn	     13.56073      6.27232     -4.04374        -0.000881     -0.002935     -0.022030
Mn	     15.47454      8.39590     -8.06361         0.009384     -0.014105     -0.000228
Mn	      9.57836     14.97426     -8.09633         0.023390     -0.002507     -0.009802
Mn	      1.99865      2.06318      0.11256        -0.006353     -0.008402     -0.023383
Mn	      3.80411      4.34155     -4.25309        -0.004795      0.008557      0.026781
Mn	      5.77193      6.34296     -8.11151         0.005250     -0.004863     -0.001079
Mn	      5.84833     -0.07433     -2.10903        -0.010495      0.002041      0.015403
Mn	      7.75701      2.02399     -6.13661         0.004348     -0.014057     -0.008282
Mn	      9.69044      4.15746    -10.25078         0.007270      0.000467      0.012959
Mn	      3.89870      6.45031      2.18414         0.013144      0.002207     -0.019147
Mn	      5.78065      8.57386     -1.98393        -0.006898      0.007561     -0.012537
Mn	      7.71045     10.69878     -6.09769         0.002293     -0.003823      0.011081
Mn	      7.78634      4.28352      0.02603        -0.003767      0.003531      0.009336
Mn	      9.70126      6.34850     -4.08809         0.002539      0.007177      0.007803
Mn	     11.59061      8.47434     -8.10434         0.006317     -0.003160     -0.004735
Mn	      5.85578      8.62351      2.03340        -0.011450     -0.000163      0.022209
Mn	      7.71898     10.74452     -2.03415        -0.015096     -0.009685     -0.003701
Mn	      5.86090      4.23874    -10.32680        -0.024312      0.005385      0.015101
Mn	      5.88200     -2.23286     -4.14889         0.003995      0.011116     -0.005137
Mn	     11.65437      8.52309     -4.12502        -0.012151      0.011500      0.013513
Mn	      9.74167      1.99859    -12.30183        -0.011618     -0.012016      0.002825
Mn	      3.93050      4.32632      0.02606        -0.005226      0.016620      0.003949
Mn	      5.79631      6.47185     -4.12478        -0.010071      0.031668      0.006601
Mn	      7.77273      8.55203     -8.22286         0.009118     -0.003159      0.022455
Mn	      7.84299      2.08694     -2.07803        -0.011303      0.008758     -0.008143
Mn	      9.77845      4.16067     -6.27249        -0.005614     -0.010946      0.071456
Mn	     11.62389      6.33821    -10.28900        -0.009688     -0.013512      0.029148
O	      3.92419     -0.30810     -1.95998        -0.042562     -0.004592     -0.032726
O	      5.82058      1.78159     -6.22128        -0.038904     -0.002647     -0.004807
O	      7.74963      3.90706    -10.18231         0.033787      0.003158     -0.019631
O	      7.87114     -2.57692     -4.08416        -0.047083     -0.005882     -0.001077
O	      9.74357     -0.42661     -8.07259        -0.038778     -0.002997     -0.004072
O	     11.69497      1.66717    -12.37379        -0.042646     -0.010223      0.009916
O	      5.84303      4.03454     -0.06732        -0.039256     -0.020010      0.012903
O	      7.75014      6.12749     -4.19460        -0.028097     -0.008869      0.006360
O	      9.65890      8.21579     -8.13963        -0.068242     -0.005568     -0.010897
O	      9.77674      1.77633     -2.11129        -0.087522      0.003583      0.004060
O	     11.67887      3.84137     -6.09683        -0.056550     -0.017110     -0.021393
O	     13.60701      6.07512    -10.31878        -0.051138      0.001999      0.001989
O	      5.90129      1.87819     -1.91263         0.040345      0.015301      0.028660
O	      7.83016      3.96757     -6.03616         0.024399      0.024842      0.040160
O	      9.73263      6.10038    -10.13743         0.028727     -0.003522      0.014869
O	      9.88244     -0.41377     -3.97550         0.034409      0.016103      0.029567
O	     11.75057      1.78182     -8.05393         0.037146      0.019921      0.042244
O	     13.69060      3.88259    -12.21163         0.020571      0.014798      0.017508
O	      7.83056      6.21022      0.25968         0.039787      0.022626      0.067674
O	      9.74531      8.29260     -3.90655         0.033769      0.019489      0.034161
O	     11.68061     10.43309     -7.96078         0.056261      0.016056      0.021624
O	     11.78743      3.95999     -1.85147         0.029749      0.029141      0.034074
O	     13.67120      6.04403     -5.96401         0.035034      0.031000      0.041839
O	     15.58112      8.21541    -10.06735         0.042940      0.012528      0.013320
O	      3.77226      2.36033     -4.22348        -0.033110     -0.012033     -0.022591
O	      5.70578      4.39016     -8.33393        -0.022027     -0.024503     -0.031358
O	      7.64624      6.53016    -12.44001        -0.047938     -0.012448     -0.037003
O	      7.73296      0.06806     -6.28011        -0.026837     -0.015651     -0.021614
O	      9.65176      2.21318    -10.35766        -0.016113      0.002439     -0.015400
O	     11.60531      4.33302    -14.48649        -0.021249     -0.022414     -0.021149
O	      5.71409      6.59423     -2.16183        -0.035192     -0.023241     -0.033465
O	      7.61316      8.74180     -6.26014        -0.031382     -0.013697     -0.034521
O	      9.56818     10.89854    -10.34034        -0.036808     -0.024546     -0.036211
O	      9.63189      4.36679     -4.28615        -0.021745     -0.043259     -0.048305
O	     11.54032      6.52757     -8.35352        -0.043544     -0.017104     -0.037910
O	     13.48818      8.67563    -12.36661        -0.028349     -0.022013     -0.030171
O	      3.91739      2.36877     -0.11022         0.044453      0.009246      0.007165
O	      5.77435      4.52478     -4.00542         0.052574     -0.003497     -0.012954
O	      7.70601      6.61924     -8.08606         0.036861      0.011387     -0.002843
O	      7.81417      0.12011     -1.94430         0.045485      0.013568      0.000080
O	      9.73033      2.19440     -6.04963         0.052374     -0.000970     -0.007525
O	     11.62995      4.42567    -10.31437        -0.029579      0.011728      0.011143
O	      5.83595      6.71831      2.06647         0.065025     -0.003743      0.025065
O	      7.71347      8.82693     -2.04989         0.059173      0.009424      0.035989
O	      9.63482     10.97605     -6.01351         0.035788      0.004209      0.003134
O	      9.72130      4.47826      0.15410         0.036753      0.005779      0.001605
O	     11.63535      6.57000     -3.94871         0.046700      0.015059     -0.012631
O	     13.55459      8.71878     -8.28939         0.045165      0.013918      0.005088
O	      1.96863      1.92248     -2.14980        -0.002948     -0.014735     -0.034569
O	      3.85107      3.98884     -6.25736        -0.007325     -0.013082     -0.099958
O	      5.74891      6.18365    -10.34984        -0.013695     -0.016686     -0.052095
O	      5.87607     -0.35633     -4.19562        -0.006810     -0.053913     -0.069740
O	      7.74191      1.75624     -8.29190        -0.009559     -0.039625     -0.042300
O	      9.78561      3.88553    -12.30084        -0.016800     -0.021670      0.048499
O	      3.84244      6.21156     -0.05357        -0.022643     -0.042378     -0.047553
O	      5.78450      8.35065     -4.15489        -0.001162     -0.035264     -0.052021
O	      7.67847     10.46399     -8.27951        -0.012938     -0.025343     -0.061290
O	      7.76679      3.98674     -2.14787        -0.010743     -0.038904     -0.047636
O	      9.69900      6.04636     -6.27951        -0.016170     -0.033615     -0.048396
O	     11.68910      8.24558    -10.33400        -0.006214     -0.014158     -0.064940
O	      3.82711      4.46795     -1.91562         0.011328      0.001936      0.041707
O	      5.76630      6.69026     -6.01961         0.019900      0.040142      0.057779
O	      7.59652      8.78142    -10.13156         0.001830      0.026766      0.069230
O	      7.81875      2.29101     -3.98871         0.010597      0.025623      0.066381
O	      9.61119      4.39830     -8.19892         0.007575      0.007890     -0.063940
O	     11.64800      6.56429    -12.19785         0.004259      0.047786      0.040536
O	      5.74650      8.87044      0.15049         0.007319      0.036271      0.059546
O	      7.70022     10.97090     -3.93526         0.013524      0.041988      0.055177
O	      9.57451     13.10303     -8.04487         0.013515      0.036257      0.067878
O	      9.70980      6.59108     -1.87177         0.008184      0.030510      0.067121
O	     11.60343      8.74493     -5.99465         0.006607      0.021832      0.077045
O	     13.55789     10.86484    -10.05194         0.010100      0.031725      0.046223
