# total energy = -824.25585930 eV
 
CRYSTAL
PRIMVEC
3.805892 8.710924 4.247441 
7.801078 -4.480896 -4.211033 
5.771742 6.320059 -0.013972 
PRIMCOORD
120 1
Li	      3.92486      2.23086     -2.13897        -0.000260      0.018710     -0.000128
Li	      7.72216      0.18393     -4.18475         0.022681      0.003516     -0.008792
Li	      5.81874      6.61437      0.06606         0.009451      0.033467     -0.006621
Li	      9.69456      4.33879     -2.04441         0.007898      0.030720     -0.010332
Li	      3.95890      0.14465     -4.16058        -0.005974      0.004955      0.001699
Li	      7.78203     -2.28050     -6.26515         0.000066      0.015206     -0.001801
Li	      5.78388      4.17466     -2.05391        -0.002285      0.006463      0.005281
Li	      9.72089      2.08252     -4.13613         0.000056     -0.002263     -0.001558
Li	      9.66830     -0.21361     -6.26230        -0.015154     -0.013022      0.005471
Li	     13.37569      3.71398    -14.25159         0.013826      0.011661      0.031555
Li	      7.66499      6.31595     -2.01775        -0.005813     -0.038850      0.010048
Li	     11.57229      4.12141     -4.14035        -0.007887     -0.013518      0.003610
Mn	      7.67641      4.12195     -4.16715        -0.001340      0.033622     -0.040497
Mn	      9.61788      6.29040     -8.24228         0.040613      0.046785     -0.065860
Mn	     11.56534      8.43804    -12.20292         0.021895     -0.090162      0.095751
Mn	      3.80083      6.39163     -2.05550         0.004128      0.043008     -0.050254
Mn	     13.49470      4.06504    -10.33425         0.021190      0.058106     -0.042384
Mn	     15.43712      6.19812    -14.31281         0.006478     -0.044397      0.053949
Mn	      9.59015      8.51004     -2.04835         0.008337      0.068296     -0.043757
Mn	     11.50595     10.67009     -6.11423         0.017413      0.026072     -0.065137
Mn	      9.64652      4.11120    -14.30028         0.016593     -0.075919      0.040172
Mn	     13.48887      6.27948     -4.15426         0.026686      0.049636     -0.055858
Mn	     15.39887      8.40156     -8.22006        -0.000022      0.010169     -0.053566
Mn	      5.74570      6.31769    -12.24620         0.007595     -0.089133      0.068573
Mn	      1.96900      2.14196      0.22373         0.025590     -0.025055      0.008045
Mn	      3.83125      4.26699     -4.37328        -0.020463      0.019126     -0.014797
Mn	      5.80688      6.27237     -8.11271        -0.005897     -0.015846     -0.041715
Mn	      5.83032     -0.04220     -1.86806         0.014755     -0.004010      0.012523
Mn	      7.68613      2.03913     -6.48275        -0.029631      0.030367     -0.007848
Mn	      9.67879      4.12776    -10.34944         0.002573     -0.008499     -0.005669
Mn	      3.87276      6.45070      2.42883         0.009652     -0.028889     -0.018299
Mn	      5.71060      8.65752     -2.25672        -0.002596      0.050430     -0.002433
Mn	      7.67764     10.72591     -6.12888         0.000930     -0.003464     -0.000557
Mn	      7.76495      4.22887      0.32277         0.005305     -0.042383      0.009796
Mn	      9.60280      6.39274     -4.36754        -0.012104      0.050696     -0.004767
Mn	     11.58096      8.48988     -8.22417         0.011182      0.001995     -0.001800
Mn	      1.96837      0.03181     -2.04843         0.006851     -0.024816      0.024382
Mn	      7.71639     10.75335     -2.14725        -0.006248      0.083390     -0.058409
Mn	      5.84501      4.21064    -10.34683        -0.026400     -0.104191      0.070631
Mn	      5.84377     -2.22796     -4.18609        -0.017447     -0.003381      0.021350
Mn	     11.58892      8.50862     -4.27134        -0.022664      0.080521     -0.069658
Mn	      9.76088      1.95471    -12.43882        -0.039166     -0.082347      0.061904
Mn	      3.88229      4.36903      0.07631        -0.000435     -0.043899      0.033077
Mn	      5.80071      6.40659     -4.24864        -0.018545      0.073655     -0.076423
Mn	      7.76402      8.51759     -8.21208         0.017208     -0.046136      0.078654
Mn	      7.77490      2.14259     -2.03325        -0.022941     -0.027617      0.041202
Mn	      9.68853      4.14284     -6.38620        -0.018336      0.080562     -0.063630
Mn	     11.65117      6.31389    -10.34288        -0.011785     -0.036415      0.065863
O	      3.89687     -0.19571     -2.15611        -0.065520      0.019337      0.009833
O	      5.80850      1.70414     -6.24544        -0.006371     -0.060201     -0.021374
O	      7.75546      3.86763    -10.27814        -0.032172     -0.013063     -0.034600
O	      7.78771     -2.48687     -4.15334        -0.042521      0.009830     -0.015785
O	      9.71522     -0.50454     -8.28340        -0.007511     -0.050966     -0.001433
O	     11.67719      1.59568    -12.39379        -0.021643     -0.008206     -0.030393
O	      5.81350      4.12663     -0.00534        -0.062278      0.012884      0.006106
O	      7.72106      6.07507     -4.04041        -0.024732     -0.030979     -0.007208
O	      9.65337      8.20409     -8.20063        -0.056975     -0.022222     -0.028453
O	      9.72229      1.86590     -2.10542        -0.031746      0.022734      0.004021
O	     11.61536      3.84415     -6.14945        -0.015598     -0.049077     -0.004694
O	     13.55978      5.96732    -10.29708        -0.035857     -0.034048     -0.031788
O	      5.85444      1.96885     -1.85316         0.043855      0.025056     -0.012589
O	      7.77552      3.94104     -6.09350         0.019508      0.008934      0.068374
O	      9.73250      6.08812    -10.17253         0.023622      0.009133      0.030249
O	      9.74736     -0.31794     -4.06335         0.028359      0.017099     -0.006777
O	     11.68887      1.70568     -8.18642         0.025337      0.012382      0.061466
O	     13.63181      3.78336    -12.29502         0.023099      0.018124      0.020312
O	      7.75104      6.25490      0.17300         0.034964      0.017439     -0.024488
O	      9.67980      8.29606     -3.97565         0.010713      0.007088      0.068130
O	     11.64251     10.45755     -8.04489         0.038058      0.024377      0.024812
O	     11.65292      4.05156     -1.90313         0.029073      0.014825     -0.008368
O	     13.58888      6.07448     -6.07609         0.023605     -0.001495      0.069544
O	     15.53058      8.21072    -10.15215         0.041289      0.018811      0.023601
O	      3.77965      2.22993     -4.26611        -0.038978     -0.049431      0.005355
O	      5.72822      4.35385     -8.41341        -0.031843     -0.007805     -0.049132
O	      7.65849      6.54800    -12.52409        -0.027906      0.000900     -0.051963
O	      7.70939     -0.01629     -6.36117        -0.026695     -0.038070      0.009998
O	      9.62376      2.16540    -10.51283        -0.026418     -0.008190     -0.045390
O	     11.57457      4.34663    -14.63265         0.001421     -0.000360     -0.039375
O	      5.72425      6.62016     -2.13968        -0.036696     -0.040520      0.001279
O	      7.62724      8.75351     -6.30085        -0.038023     -0.015100     -0.043357
O	      9.54704     10.86364    -10.39767        -0.013454      0.011487     -0.047934
O	      9.61597      4.33122     -4.25340        -0.020407     -0.032074      0.015206
O	     11.53540      6.52464     -8.41108        -0.043113     -0.026610     -0.041214
O	     13.47010      8.65337    -12.48454        -0.022140      0.006940     -0.046899
O	      3.86022      2.44038     -0.04785         0.007182      0.051652      0.022305
O	      5.76492      4.44603     -4.05019         0.055269     -0.015082      0.006188
O	      7.71281      6.60285     -8.27450         0.024891      0.032130      0.012515
O	      7.73361      0.20127     -2.15144         0.011761      0.032062      0.014499
O	      9.66280      2.13362     -6.17089         0.055147     -0.011153      0.002386
O	     11.60080      4.40039    -10.41233         0.033378      0.015020      0.028023
O	      5.76503      6.80006      2.10198        -0.019600      0.041026      0.010303
O	      7.66137      8.75008     -1.93713         0.050736     -0.012193     -0.002430
O	      9.59936     11.02397     -6.18936         0.036150      0.024537      0.019964
O	      9.65347      4.53279     -0.03014         0.029759      0.046908      0.014995
O	     11.54704      6.49992     -4.04921         0.050065     -0.016623      0.006213
O	     13.50332      8.76161     -8.27646         0.045519      0.030203      0.019922
O	      1.94526      1.95803     -2.19761        -0.004518     -0.035347     -0.012090
O	      3.91155      3.89587     -6.35793         0.000998     -0.079421     -0.021461
O	      5.80319      6.18134    -10.39164         0.000637      0.023485     -0.067764
O	      5.84868     -0.34070     -4.33536         0.003292     -0.055125     -0.019330
O	      7.79085      1.65420     -8.46587         0.001270     -0.088110     -0.018707
O	      9.73558      3.88354    -12.44372         0.002370     -0.001498     -0.044983
O	      3.87479      6.29852     -0.08068        -0.004255     -0.020097     -0.007830
O	      5.79613      8.27683     -4.23858         0.002478     -0.091239     -0.024410
O	      7.72727     10.44288     -8.25651        -0.008452     -0.006877     -0.061951
O	      7.75930      4.05724     -2.19338        -0.006816     -0.025502     -0.013073
O	      9.70562      5.99903     -6.34146        -0.000104     -0.083627     -0.017963
O	     11.63530      8.23327    -10.36780        -0.008243     -0.015224     -0.092302
O	      3.82067      4.46124     -1.89800         0.006474      0.028183      0.043970
O	      5.72291      6.61473     -6.08301        -0.004096      0.003803      0.093008
O	      7.53010      8.80058    -10.14269        -0.005048      0.061905      0.000417
O	      7.77234      2.22241     -3.98592        -0.014976      0.026268      0.033978
O	      9.63307      4.36781     -8.22830        -0.001324      0.005394      0.078235
O	     11.55495      6.58347    -12.24921        -0.002782      0.081774      0.003464
O	      5.70978      8.82825      0.23257         0.007706      0.006039      0.036443
O	      7.59857     10.96449     -3.99163         0.010391      0.018155      0.088816
O	      9.56798     13.18031     -8.00342        -0.004980      0.102531      0.003236
O	      9.61230      6.55667     -1.88461         0.006995      0.001758      0.035222
O	     11.51031      8.74316     -6.11335         0.000972      0.011992      0.066403
O	     13.47772     10.96843    -10.09341         0.001895      0.076405      0.007732
