# total energy = -823.73957248 eV
 
CRYSTAL
PRIMVEC
3.808764 8.725929 4.274177 
7.791494 -4.484567 -4.231491 
5.778170 6.288709 -0.014059 
PRIMCOORD
120 1
Li	      3.89501      2.22196     -2.04266         0.011900      0.007946     -0.004376
Li	      7.79079     -0.02064     -4.15727         0.012256      0.008873     -0.005758
Li	      5.79912      6.58492      0.09514         0.013338      0.008223     -0.004828
Li	      9.69528      4.34103     -2.02082         0.012595      0.009315     -0.004365
Li	      7.69034      8.62460      0.10815        -0.001578     -0.000485     -0.000210
Li	     11.58597      6.38247     -2.00746        -0.001178      0.000054     -0.000905
Li	      5.78584      4.26077     -2.02938        -0.001906      0.000393      0.000155
Li	      9.68163      2.01921     -4.14521        -0.001672      0.000418      0.000755
Li	      5.77216      1.94028     -4.15398        -0.012369     -0.011336      0.005113
Li	      9.66722     -0.30053     -6.26931        -0.010961     -0.012682      0.004541
Li	      7.67636      6.30295     -2.01630        -0.012310     -0.011785      0.004723
Li	     11.57199      4.06272     -4.13258        -0.011585     -0.012734      0.005930
Mn	      7.69762      4.13471     -4.16581         0.019395      0.040259     -0.037095
Mn	      9.59708      6.28428     -8.24641         0.023475      0.048863     -0.072509
Mn	     11.55251      8.43475    -12.18363         0.017643     -0.098990      0.089211
Mn	      3.80179      6.37699     -2.05035         0.020466      0.040856     -0.036238
Mn	     13.49220      4.04152    -10.36275         0.024037      0.049976     -0.072142
Mn	     15.44875      6.19193    -14.29937         0.017091     -0.098262      0.089287
Mn	      9.60191      8.49784     -2.02865         0.019798      0.040187     -0.037487
Mn	     11.50122     10.64704     -6.10954         0.023251      0.050124     -0.072338
Mn	      9.64877      4.07160    -14.32060         0.016128     -0.099048      0.089416
Mn	      5.70613     10.73998      0.08698         0.020006      0.040209     -0.036698
Mn	     15.39662      8.40455     -8.22564         0.024326      0.049095     -0.071957
Mn	     13.54393      1.82883    -16.43661         0.017726     -0.097945      0.089754
Mn	      1.96130      2.12770      0.32744         0.010187     -0.024475     -0.011117
Mn	      3.80979      4.27553     -4.40752        -0.008025      0.025672      0.011115
Mn	      5.77465      6.34536     -8.23964         0.000560      0.002165     -0.000087
Mn	      5.85710     -0.11413     -1.78794         0.010200     -0.025495     -0.011105
Mn	      7.70552      2.03377     -6.52356        -0.008388      0.024366      0.011925
Mn	      9.66994      4.10420    -10.35524         0.001288     -0.000286     -0.000119
Mn	      3.86590      6.49074      2.46423         0.009368     -0.024736     -0.010011
Mn	      5.71448      8.63834     -2.27016        -0.008993      0.025849      0.010381
Mn	      7.67856     10.70866     -6.10274         0.002072      0.001178      0.000302
Mn	      7.76134      4.24883      0.34897         0.010168     -0.025191     -0.011138
Mn	      9.60988      6.39621     -4.38569        -0.008217      0.025523      0.010922
Mn	     11.57455      8.46710     -8.21822         0.001782      0.000290     -0.000279
Mn	      1.96964      0.02637     -2.02932        -0.020473     -0.040223      0.035163
Mn	      7.70086     10.74145     -2.13729        -0.018777      0.095670     -0.089275
Mn	      5.84735      4.16539    -10.34870        -0.019563     -0.050005      0.072222
Mn	      5.86546     -2.21576     -4.14508        -0.021181     -0.039987      0.035195
Mn	     11.59655      8.49901     -4.25270        -0.017707      0.096171     -0.090090
Mn	      9.74377      1.92381    -12.46385        -0.020415     -0.050276      0.070855
Mn	      3.87378      4.38928      0.10719        -0.019844     -0.039489      0.036864
Mn	      5.79659      6.37838     -4.27421        -0.018355      0.096731     -0.089924
Mn	      7.75209      8.52842     -8.21124        -0.019652     -0.049165      0.071342
Mn	      7.76974      2.14707     -2.00795        -0.020258     -0.039570      0.035622
Mn	      9.69270      4.13632     -6.38983        -0.019431      0.095318     -0.089930
Mn	     11.64766      6.28687    -10.32700        -0.019049     -0.050409      0.071186
O	      3.90544     -0.21248     -2.12775        -0.054853      0.013073     -0.010900
O	      5.81946      1.70847     -6.18933         0.001494     -0.037968     -0.005741
O	      7.74918      3.82757    -10.30256        -0.017918     -0.025270     -0.030201
O	      7.80105     -2.45520     -4.24366        -0.053618      0.013527     -0.009512
O	      9.71504     -0.53408     -8.30492         0.002140     -0.038944     -0.004667
O	     11.64545      1.58505    -12.41814        -0.020124     -0.025539     -0.030613
O	      5.80948      4.15068      0.00887        -0.052989      0.013080     -0.009345
O	      7.72377      6.07104     -4.05178         0.002567     -0.036774     -0.006192
O	      9.65389      8.19071     -8.16464        -0.018916     -0.026198     -0.030643
O	      9.70552      1.90799     -2.10675        -0.054099      0.013095     -0.009934
O	     11.61976      3.82880     -6.16763         0.001919     -0.037873     -0.006092
O	     13.54940      5.94814    -10.28292        -0.018283     -0.026263     -0.026912
O	      5.84627      1.95699     -1.92236         0.028770      0.029006     -0.029675
O	      7.78491      3.93181     -6.08924        -0.000794      0.005287      0.064348
O	      9.72501      6.07068    -10.17041         0.010720      0.030575      0.029854
O	      9.74186     -0.28595     -4.03833         0.028343      0.029751     -0.029638
O	     11.68039      1.68911     -8.20537         0.000041      0.005860      0.065051
O	     13.62092      3.82715    -12.28664         0.010105      0.033245      0.029434
O	      7.75078      6.31989      0.21493         0.026823      0.028447     -0.029689
O	      9.68874      8.29435     -3.95217         0.001723      0.005827      0.063914
O	     11.62976     10.43355     -8.03336         0.010036      0.030844      0.028827
O	     11.64646      4.07711     -1.90100         0.027939      0.029854     -0.029959
O	     13.58460      6.05192     -6.06811         0.001084      0.005891      0.064654
O	     15.52490      8.19048    -10.14960         0.011311      0.031709      0.030009
O	      3.82083      2.20469     -4.27335        -0.028058     -0.025948      0.035063
O	      5.71915      4.37897     -8.42469        -0.008939     -0.029464     -0.031681
O	      7.66036      6.51809    -12.50528        -0.002362     -0.005926     -0.065957
O	      7.71638     -0.03777     -6.38900        -0.026680     -0.025267      0.034262
O	      9.61520      2.13777    -10.53982        -0.009411     -0.031140     -0.033484
O	     11.55661      4.27635    -14.62106        -0.004209     -0.006251     -0.065381
O	      5.72528      6.56768     -2.13620        -0.027691     -0.026403      0.034279
O	      7.62348      8.74218     -6.28728        -0.009481     -0.029378     -0.032706
O	      9.56509     10.88118    -10.36870        -0.004228     -0.005760     -0.065856
O	      9.62114      4.32535     -4.25168        -0.029314     -0.026059      0.034318
O	     11.51980      6.50072     -8.40313        -0.009669     -0.031071     -0.031910
O	     13.46041      8.63931    -12.48379        -0.002125     -0.006388     -0.067075
O	      3.84735      2.45297     -0.00716        -0.004637      0.037430      0.007697
O	      5.76172      4.37338     -4.06738         0.055229     -0.008602      0.009698
O	      7.69530      6.62191     -8.29246         0.019777      0.025580      0.026902
O	      7.74322      0.21078     -2.12199        -0.004311      0.036737      0.006003
O	      9.65740      2.13121     -6.18319         0.055026     -0.009212      0.009400
O	     11.59055      4.38034    -10.40865         0.018823      0.026112      0.027962
O	      5.75206      6.81602      2.13062        -0.004280      0.036006      0.005868
O	      7.66616      8.73671     -1.92990         0.054576     -0.010104      0.008330
O	      9.59936     10.98491     -6.15575         0.018540      0.025139      0.027039
O	      9.64752      4.57376      0.01469        -0.005786      0.037785      0.005711
O	     11.56171      6.49405     -4.04564         0.056000     -0.009529      0.008683
O	     13.49512      8.74323     -8.27138         0.018880      0.026729      0.027060
O	      1.96063      1.94929     -2.21029        -0.003932     -0.024795     -0.026374
O	      3.89951      3.87025     -6.36774        -0.001897     -0.076787     -0.004087
O	      5.83484      6.09025    -10.36714        -0.007043      0.032838     -0.064674
O	      5.85648     -0.29257     -4.32588        -0.003290     -0.025704     -0.026340
O	      7.79564      1.62787     -8.48319        -0.002910     -0.076309     -0.004181
O	      9.73126      3.84883    -12.48252        -0.008185      0.029979     -0.066055
O	      3.86481      6.31224     -0.07346        -0.003194     -0.025519     -0.026316
O	      5.80418      8.23324     -4.23056        -0.002869     -0.077049     -0.004518
O	      7.73958     10.45351     -8.22986        -0.007330      0.030136     -0.065377
O	      7.76080      4.07001     -2.18890        -0.003760     -0.024497     -0.026210
O	      9.70091      5.99111     -6.34591        -0.004232     -0.077597     -0.004099
O	     11.63481      8.21199    -10.34551        -0.006570      0.029691     -0.066162
O	      3.81082      4.45392     -1.86982         0.004654      0.024946      0.030764
O	      5.71326      6.60085     -6.11219         0.005936     -0.028487      0.066745
O	      7.64963      8.82172    -10.11180         0.000773      0.074354      0.003921
O	      7.70677      2.21171     -3.98500         0.004600      0.023721      0.029225
O	      9.60949      4.35917     -8.22790         0.005235     -0.030255      0.066562
O	     11.54424      6.58009    -12.22748         0.002075      0.073715      0.003506
O	      5.71531      8.81687      0.26787         0.005444      0.025124      0.029063
O	      7.61721     10.96399     -3.97537         0.006385     -0.030139      0.066578
O	      9.55262     13.18465     -7.97507         0.003914      0.073784      0.005054
O	      9.61101      6.57488     -1.84781         0.004606      0.024097      0.029393
O	     11.51387      8.72191     -6.09071         0.004565     -0.030105      0.065342
O	     13.44978     10.94280    -10.09035         0.000765      0.074456      0.005637
