# total energy = -90.90616633 eV
 
CRYSTAL
PRIMVEC
4.072663 0.003109 -0.000863 
-2.034692 4.485320 -6.401334 
-2.035011 4.276906 1.996505 
PRIMCOORD
16 1
Li	      0.00027      2.41287     -2.35250         0.000685      0.017822     -0.053761
Li	     -2.03498      4.45049     -2.28732        -0.003078     -0.047879     -0.039980
Li	      0.00288      6.47566     -2.16703         0.003905      0.050031      0.040016
Li	      0.00252      4.23594     -4.09850         0.000185     -0.016232      0.049925
Mn	      2.03889      4.46849     -6.35379        -0.002729     -0.139787      0.145965
Mn	      2.03698      2.18352     -0.09902        -0.001377      0.141019     -0.145786
Ni	      0.00121      4.46040     -0.25095        -0.004935     -0.156855     -0.000246
Ni	     -2.03321      6.46536     -4.20387         0.001063      0.155518      0.000628
O	     -2.03067      6.53584     -2.28373        -0.024141     -0.144238      0.183880
O	      2.03809      4.12655      0.03640        -0.003474     -0.058105      0.061724
O	      0.00264      6.80238     -4.49288         0.004055      0.058813     -0.054862
O	      2.03718      0.15473     -0.09224         0.003745      0.079944      0.100446
O	     -2.03254      4.49034     -4.49003        -0.005819     -0.200615     -0.139536
O	      2.03580      2.15845     -1.96181         0.008655      0.200811      0.139064
O	     -0.00109      4.38959     -2.17071         0.024241      0.143856     -0.191740
O	      0.00071      2.00871      0.04134        -0.000980     -0.084104     -0.095737
