# total energy = -824.24416803 eV
 
CRYSTAL
PRIMVEC
3.800888 8.716056 4.242120 
7.801190 -4.486293 -4.209754 
5.770461 6.328994 -0.013975 
PRIMCOORD
120 1
Li	      3.90424      2.12965     -2.02816         0.005007      0.006738     -0.003390
Li	      7.80729     -0.06865     -4.15064         0.003763      0.028463     -0.003101
Li	      9.87497      2.32370     -8.57547        -0.032670     -0.026384     -0.016263
Li	      5.79681      6.54643      0.06670         0.011227      0.033088     -0.011063
Li	      7.67894      8.61712      0.07917        -0.002286     -0.002352      0.000650
Li	     11.47890      6.13816     -2.03028         0.017974     -0.002283     -0.003722
Li	      5.76758      4.20908     -2.03429        -0.003111     -0.005560     -0.002587
Li	      9.69232      2.07988     -4.12114         0.002606     -0.012697     -0.002916
Li	      5.78508      1.91752     -4.12511        -0.004931     -0.022991     -0.000124
Li	      9.65628     -0.39210     -6.21994        -0.009650     -0.027939      0.009502
Li	      7.72996      6.14733     -2.01785        -0.017445     -0.018202      0.002452
Li	     11.53231      4.09275     -4.04132         0.005469     -0.029488     -0.009950
Mn	      7.70707      4.14761     -4.14447         0.008848      0.037563     -0.025772
Mn	      9.59408      6.28637     -8.25697         0.015254      0.089727     -0.063336
Mn	     11.56801      8.47289    -12.19229         0.019199     -0.081197      0.051424
Mn	      3.81488      6.39052     -2.01488         0.020600      0.034561     -0.025641
Mn	     13.48097      4.06062    -10.36370         0.038555      0.063784     -0.056522
Mn	      7.64663     10.68880    -10.08365         0.016034     -0.071314      0.063852
Mn	      9.59255      8.53312     -2.03123         0.003900      0.018767     -0.027521
Mn	     11.47285     10.69830     -6.15613        -0.021837      0.050764     -0.053013
Mn	      9.64733      4.11441    -14.35074         0.025337     -0.075160      0.059301
Mn	      5.68827     10.74478      0.07873         0.015140      0.015202     -0.035382
Mn	     15.38724      8.42181     -8.22227         0.034697      0.044863     -0.068161
Mn	     13.51076      1.86591    -16.43196         0.006628     -0.086111      0.046946
Mn	      1.95898      2.11067      0.30260         0.007616     -0.038728     -0.008417
Mn	      3.83085      4.23753     -4.35244        -0.000122      0.018093      0.010615
Mn	      5.76003      6.37375     -8.25031         0.006238      0.009478      0.006514
Mn	      5.87413     -0.10950     -1.80712         0.022587     -0.039193     -0.008416
Mn	      7.69094      2.05542     -6.44396        -0.029411      0.029696      0.005581
Mn	      9.62841      4.23431    -10.49733         0.011996      0.012663      0.063479
Mn	      3.83499      6.50974      2.40691         0.009157     -0.028003     -0.001701
Mn	      5.71291      8.63677     -2.25926        -0.001390      0.035313      0.002832
Mn	      7.66051     10.72402     -6.12260        -0.009007      0.000930      0.000947
Mn	      7.78369      4.25593      0.28738         0.028591     -0.030334     -0.018743
Mn	      9.60708      6.41013     -4.35567        -0.025837      0.013112      0.025552
Mn	     11.56381      8.48699     -8.22586        -0.010624      0.004016      0.002928
Mn	      1.97368      0.01665     -2.01482        -0.035064     -0.039026      0.034430
Mn	      7.68212     10.76487     -2.15596        -0.014447      0.072268     -0.065717
Mn	      5.81501      4.21117    -10.36237        -0.035781     -0.031706      0.066497
Mn	      5.87556     -2.20696     -4.14655        -0.007064     -0.059972      0.024849
Mn	     11.60095      8.52598     -4.26397        -0.025877      0.050129     -0.033989
Mn	      9.74339      1.95856    -12.48370         0.000708     -0.045731      0.040303
Mn	      3.87459      4.36531      0.10432        -0.013430     -0.038555      0.041372
Mn	      5.79814      6.38575     -4.29883         0.003101      0.078924     -0.039020
Mn	      7.73974      8.53861     -8.23366        -0.030808     -0.037995      0.064767
Mn	      7.80417      2.16147     -2.01439        -0.001675     -0.036417      0.037072
Mn	      9.68521      4.18399     -6.36544        -0.017102      0.082798     -0.051571
Mn	     11.65117      6.32875    -10.33896        -0.005398     -0.037715      0.056311
O	      3.92110     -0.20360     -2.12829        -0.050258      0.011784     -0.001069
O	      5.80193      1.76082     -6.15473        -0.013615     -0.041596     -0.024480
O	      7.71966      3.89817    -10.33977        -0.018756     -0.036863     -0.011698
O	      7.80436     -2.45343     -4.24434        -0.053475      0.011408     -0.004062
O	      9.72997     -0.51058     -8.26336        -0.014789     -0.035093     -0.011383
O	     11.63786      1.61749    -12.39328        -0.052860     -0.017948     -0.028551
O	      5.81269      4.14629     -0.00273        -0.051000      0.015773     -0.003554
O	      7.71398      6.08325     -4.04348         0.000493     -0.039628     -0.015878
O	      9.64529      8.18534     -8.16472        -0.028755     -0.012818     -0.028860
O	      9.71148      1.83581     -2.12394        -0.058420      0.019532     -0.004449
O	     11.62629      3.83984     -6.12712        -0.029584     -0.031574     -0.022795
O	     13.54478      5.96436    -10.27449        -0.047791     -0.015674     -0.025802
O	      5.86701      1.95139     -1.92807         0.012584      0.040623     -0.009831
O	      7.77682      3.95886     -6.09551         0.035068     -0.001038      0.047468
O	      9.71592      6.15241    -10.19682         0.024206      0.002482      0.049086
O	      9.75655     -0.33640     -4.03454         0.026522      0.044282     -0.013720
O	     11.66371      1.67316     -8.17882        -0.008616      0.008657      0.043632
O	     13.61714      3.84946    -12.29039         0.022298      0.013047      0.045468
O	      7.74848      6.30717      0.17892         0.020223      0.042566      0.001335
O	      9.69678      8.32782     -3.96613         0.012046     -0.007858      0.050204
O	     11.61197     10.46079     -8.06693         0.024494      0.025111      0.042153
O	     11.67859      4.06203     -1.90713         0.035926      0.055971     -0.004117
O	     13.57690      6.05721     -6.05993         0.011501      0.006394      0.059608
O	     15.49972      8.20317    -10.15024         0.033499      0.023059      0.049414
O	      3.81778      2.21767     -4.23560        -0.025250     -0.030102      0.010222
O	      5.70319      4.41379     -8.42742        -0.026073     -0.015042     -0.031325
O	      7.64239      6.54258    -12.49428        -0.013284     -0.003446     -0.064759
O	      7.71662      0.05402     -6.35290        -0.015482     -0.027940      0.004465
O	      9.60409      2.23990    -10.52635        -0.009290     -0.026548     -0.012641
O	     11.55698      4.31974    -14.62294        -0.022461     -0.010961     -0.058374
O	      5.72392      6.58840     -2.11170        -0.024697     -0.036771      0.018605
O	      7.60196      8.75631     -6.30073        -0.032793     -0.017750     -0.038460
O	      9.55776     10.91644    -10.37829        -0.013490     -0.010568     -0.065527
O	      9.61745      4.34997     -4.34640        -0.033361     -0.029152      0.004828
O	     11.51501      6.51927     -8.41152        -0.026468     -0.007915     -0.027281
O	     13.47720      8.68120    -12.49444        -0.018193     -0.003112     -0.061826
O	      3.86252      2.43545     -0.01633         0.010987      0.039810      0.012578
O	      5.76410      4.38723     -4.06210         0.048805     -0.021946     -0.011512
O	      7.68282      6.62916     -8.32300         0.041772      0.022292      0.045881
O	      7.75771      0.20614     -2.12911         0.011542      0.027496      0.011669
O	      9.67561      2.17197     -6.26459         0.056050     -0.006266      0.009453
O	     11.56290      4.42511    -10.41748         0.028560      0.015246      0.030312
O	      5.74612      6.80718      2.09167         0.025606      0.031735      0.012911
O	      7.65972      8.77872     -1.94420         0.051109     -0.011796     -0.007274
O	      9.58314     11.01126     -6.16379         0.061900      0.015858      0.036508
O	      9.65355      4.60067      0.04804         0.012052      0.040519      0.021724
O	     11.55692      6.52294     -4.03712         0.057143     -0.018964     -0.007137
O	     13.48093      8.77201     -8.27719         0.025894      0.033503      0.028435
O	      1.94486      1.94902     -2.18579        -0.002347     -0.009544     -0.031195
O	      3.87367      3.90526     -6.34558        -0.004723     -0.060955     -0.007595
O	      5.80311      6.12858    -10.37662        -0.008018     -0.003083     -0.084640
O	      5.85813     -0.26425     -4.30089        -0.006178     -0.010855     -0.037322
O	      7.90652      1.69246     -8.47338         0.007613     -0.051922     -0.009481
O	      9.71972      3.89372    -12.51654         0.003277     -0.001666     -0.077659
O	      3.84536      6.30453     -0.06445         0.001403     -0.008431     -0.042833
O	      5.76987      8.23765     -4.24731        -0.002303     -0.054210     -0.008060
O	      7.72784     10.46229     -8.24537        -0.003144      0.001528     -0.077609
O	      7.71666      4.06173     -2.19737         0.004507     -0.013901     -0.039231
O	      9.68443      6.03112     -6.35806         0.010106     -0.088200     -0.010399
O	     11.64660      8.25139    -10.35173        -0.007979      0.003150     -0.064393
O	      3.80580      4.46324     -1.86810        -0.006686      0.015809      0.017572
O	      5.70663      6.62038     -6.15465        -0.001600      0.000322      0.035618
O	      7.64988      8.82840    -10.12773        -0.003358      0.074569      0.008858
O	      7.73370      2.22460     -4.00377        -0.003066      0.020562      0.022270
O	      9.63628      4.31906     -8.22122         0.007325     -0.029142      0.064053
O	     11.56360      6.61785    -12.23777        -0.003367      0.078302      0.017464
O	      5.69990      8.82872      0.24998         0.011067      0.022402      0.016220
O	      7.60341     10.98555     -3.99259         0.000581      0.002781      0.070890
O	      9.49746     13.21316     -8.01805         0.005280      0.067536      0.019738
O	      9.60220      6.64724     -1.86741         0.002879      0.035338      0.015325
O	     11.51393      8.76972     -6.11230         0.010751     -0.001651      0.048043
O	     13.44307     10.96460    -10.12715         0.001194      0.076595      0.032638
