# total energy = -832.79112387 eV
 
CRYSTAL
PRIMVEC
3.848102 8.630112 4.310289 
7.900618 -4.501044 -4.188939 
5.734220 6.234613 -0.013074 
PRIMCOORD
121 1
Li	      3.90821     -0.08305     -4.16003         0.008804      0.019977      0.004279
Li	      9.67106     10.58850     -4.00960        -0.003537     -0.007615     -0.002625
Li	     11.56761     12.65707     -8.15930        -0.000420     -0.017063      0.002322
Li	     11.70027      6.26468     -1.94329        -0.000613     -0.005328     -0.000580
Li	     13.54523      8.08406     -6.13359        -0.022326     -0.047932     -0.011824
Li	     15.52013     10.35594    -10.25225        -0.004966     -0.044898     -0.002937
Li	      5.85154      4.21805     -1.98844         0.005114      0.018088      0.000143
Li	      7.73278      6.32785     -6.16074         0.008015      0.028981      0.007255
Li	      9.64982      8.29625    -10.31536        -0.012642     -0.039248     -0.008824
Li	      9.78148      1.93998     -4.10449         0.000386     -0.011643      0.000083
Li	     11.73553      4.22873     -8.22044         0.011833      0.054670      0.007922
Li	     13.60200      6.09254    -12.40602         0.002700     -0.013721     -0.003122
Li	     11.63866      1.69938    -10.29231        -0.007856     -0.041030     -0.001989
Mn	      7.75156      4.09952     -4.04743         0.020200     -0.004671     -0.017426
Mn	      9.65836      6.18584     -8.20524         0.004825     -0.001544     -0.007075
Mn	     11.57443      8.25769    -12.35345         0.014803      0.009093     -0.011805
Mn	     11.68782      1.86457     -6.15137         0.000203     -0.003036      0.000673
Mn	     13.61396      3.93652    -10.30440         0.034248      0.000276     -0.016949
Mn	     15.52690      6.01150    -14.43946         0.009260     -0.001075     -0.005143
Mn	      9.67102      8.42653     -1.89315         0.025937      0.000902     -0.015021
Mn	     11.58267     10.47803     -6.02609        -0.003449     -0.000128      0.006442
Mn	     13.49136     12.57719    -10.20860         0.012633      0.015413     -0.002721
Mn	     13.61311      6.15749     -3.97889         0.004191     -0.003424     -0.008031
Mn	     15.55045      8.27028     -8.14283         0.020257     -0.012788     -0.025234
Mn	     17.44555     10.33964    -12.29289         0.014686     -0.010415     -0.004162
Mn	      1.93810      2.13126      0.03789         0.003498      0.003501     -0.003192
Mn	      3.85429      4.14660     -4.03431        -0.001979     -0.008069     -0.001490
Mn	      5.79983      6.30600     -8.33879        -0.004048     -0.004444      0.006337
Mn	      5.88709     -0.12271     -2.05888        -0.001947     -0.000010     -0.003105
Mn	      7.80264      1.95094     -6.20923        -0.003953      0.000606     -0.010414
Mn	      9.69532      4.06187    -10.37121        -0.007649     -0.002810      0.000104
Mn	      3.85830      6.44862      2.19183         0.001366      0.006507      0.005719
Mn	      5.77475      8.52806     -1.95724         0.008075     -0.002239      0.007989
Mn	      7.68044     10.62285     -6.10788         0.021355      0.006018     -0.001164
Mn	      7.81848      4.18652      0.09780        -0.004914     -0.005328     -0.007586
Mn	      9.72136      6.27154     -4.05508         0.008064     -0.003406      0.000946
Mn	     11.64560      8.34344     -8.21885        -0.008294      0.018681     -0.001735
Mn	      1.98759     -0.02788     -2.12201        -0.011387     -0.005966      0.020695
Mn	      3.91381      2.07555     -6.26202        -0.012122     -0.013508      0.002995
Mn	      5.83456      4.15270    -10.41938        -0.017868     -0.011032      0.019128
Mn	      5.93693     -2.27076     -4.21684        -0.009539     -0.005497      0.015123
Mn	      7.85497     -0.20395     -8.35550        -0.013727      0.013504      0.001442
Mn	      9.74990      1.89133    -12.52788        -0.013635      0.009402      0.030361
Mn	      3.91913      4.28811      0.03890        -0.007706      0.004924      0.017251
Mn	      5.83526      6.35887     -4.09730        -0.010923     -0.002630      0.000022
Mn	      7.75188      8.45370     -8.25718        -0.021159      0.003383      0.019490
Mn	      7.86861      2.03577     -2.05948        -0.009783      0.003388      0.014677
Mn	      9.77144      4.12368     -6.21340        -0.021748      0.002593      0.006192
Mn	     11.68465      6.18055    -10.37763        -0.003126      0.021936      0.006131
O	      3.93214     -0.34534     -2.19415        -0.053528     -0.020986      0.013617
O	      5.84657      1.74313     -6.33338        -0.053784     -0.026923      0.016450
O	      7.76637      3.80233    -10.49157        -0.039730      0.011054      0.011251
O	      7.88672     -2.58381     -4.28528        -0.055875     -0.019076      0.015004
O	      9.80428     -0.53763     -8.41211        -0.041822     -0.031318      0.000498
O	     11.73173      1.59511    -12.47124        -0.049830     -0.026895      0.005993
O	      5.86620      3.96631     -0.02789        -0.052536     -0.007880      0.011664
O	      7.76421      6.04767     -4.19238        -0.054402     -0.011092      0.014841
O	      9.69589      8.12702     -8.32940        -0.059329     -0.007211      0.009305
O	      9.81441      1.72014     -2.12676        -0.055280     -0.006952      0.010126
O	     11.72774      3.80391     -6.28310        -0.048100     -0.017815      0.007883
O	     13.60164      5.86171    -10.42636        -0.086624     -0.018732      0.009729
O	      5.94842      1.84184     -1.87068         0.032656      0.013833      0.035380
O	      7.85488      3.90979     -6.01637         0.047801      0.010136      0.034864
O	      9.73662      6.01221    -10.15777         0.027954      0.020753      0.032484
O	      9.90101     -0.40733     -3.96209         0.038890      0.019673      0.031891
O	     11.80673      1.62570     -8.16428         0.031003      0.011443      0.029509
O	     13.72846      3.75643    -12.27519         0.033765      0.012965      0.040661
O	      7.86674      6.15155      0.27760         0.039946      0.014026      0.038512
O	      9.78070      8.23443     -3.85776         0.037852      0.008335      0.037473
O	     11.70336     10.29688     -8.01363         0.050849      0.023699      0.002442
O	     11.81572      3.91219     -1.80925         0.038507      0.012922      0.043104
O	     13.72885      6.00324     -5.95287         0.032527     -0.001390      0.030869
O	     15.65908      8.13710    -10.07819         0.038025      0.039457      0.038682
O	      3.79438      2.21124     -4.28402        -0.032809     -0.022579     -0.027987
O	      5.72750      4.34303     -8.45675        -0.045507     -0.010385     -0.026666
O	      7.61713      6.40214    -12.60931        -0.036978     -0.006600     -0.030813
O	      7.74002     -0.01228     -6.38390        -0.036802     -0.019950     -0.034085
O	      9.75730      2.11464    -10.58135         0.037638      0.002834     -0.040027
O	     11.56264      4.15133    -14.70265        -0.036706     -0.011397     -0.035443
O	      5.71712      6.55730     -2.15462        -0.031814     -0.017686     -0.038252
O	      7.61691      8.58488     -6.30694        -0.052435     -0.039395     -0.037745
O	      9.54739     10.72255    -10.45102        -0.033678     -0.008321     -0.038370
O	      9.66827      4.30822     -4.24454        -0.037096     -0.011945     -0.041012
O	     11.58170      6.36518     -8.39860        -0.037347      0.001762     -0.027887
O	     13.49526      8.45415    -12.54420        -0.038002     -0.005127     -0.037522
O	      3.89229      2.34930      0.16088         0.047561      0.022960     -0.010298
O	      5.80867      4.41202     -3.96441         0.051156      0.020993     -0.018445
O	      7.72225      6.50825     -8.13572         0.053028      0.024470     -0.009810
O	      7.84284      0.09524     -1.93253         0.051537      0.023209     -0.016290
O	      9.75871      2.17616     -6.08135         0.060989      0.020353     -0.018725
O	     11.65515      4.21606    -10.23197         0.049263      0.032581     -0.003624
O	      5.80604      6.66280      2.30841         0.056845      0.018401     -0.002210
O	      7.72114      8.77019     -1.84063         0.049037     -0.002299     -0.007064
O	      9.64442     10.84133     -5.98265         0.031152      0.023199     -0.006955
O	      9.76683      4.41712      0.22366         0.055597      0.018288     -0.009360
O	     11.67360      6.48209     -3.91524         0.054125      0.012108     -0.018517
O	     13.59848      8.57248     -8.07729         0.046692      0.012480     -0.010368
O	      1.91349      1.86327     -2.19141        -0.019498     -0.024878     -0.046206
O	      3.81290      4.00165     -6.32005        -0.025531     -0.028429     -0.046423
O	      5.74625      6.05824    -10.49132        -0.022389     -0.029488     -0.049380
O	      5.85522     -0.37813     -4.28665        -0.017497     -0.028915     -0.046942
O	      7.78010      1.68160     -8.40979        -0.009774     -0.035782     -0.013424
O	      9.67113      3.78218    -12.60885        -0.011385     -0.029703     -0.043755
O	      3.84127      6.18606     -0.05081        -0.020567     -0.019388     -0.052264
O	      5.75462      8.25163     -4.18996        -0.018370     -0.022518     -0.036156
O	      7.66521     10.34213     -8.32734        -0.017595     -0.022645     -0.064157
O	      7.79936      3.92879     -2.12815        -0.024435     -0.017995     -0.051933
O	      9.69307      6.00993     -6.27868        -0.013570     -0.027086     -0.047010
O	     11.61826      8.07539    -10.43941        -0.022447     -0.012851     -0.046090
O	      3.87747      4.46851     -1.88576         0.021780      0.026956      0.044532
O	      5.71309      6.51934     -6.03643         0.010039      0.031310      0.043275
O	      7.70892      8.62628    -10.18251         0.007463      0.035694      0.043941
O	      7.82986      2.21071     -3.97911         0.015695      0.029219      0.037076
O	      9.74035      4.29550     -8.12824         0.022023      0.042856      0.046721
O	     11.63905      6.36487    -12.29678         0.022314      0.033506      0.039474
O	      5.79094      8.77110      0.26537         0.021985      0.020212      0.050695
O	      7.71933     10.88745     -3.87345         0.007507      0.022994      0.064453
O	      9.62082     12.95270     -8.02853         0.016156      0.029130      0.035974
O	      9.73953      6.53635     -1.82530         0.023132      0.017330      0.044470
O	     11.66616      8.57445     -5.95625         0.017904      0.000190      0.045248
O	     13.58215     10.68236    -10.13264         0.013542      0.018958      0.043556
