# total energy = -842.62809074 eV
 
CRYSTAL
PRIMVEC
3.889706 8.671792 4.228378 
7.944180 -4.468081 -4.163618 
5.833809 6.352894 -0.013379 
PRIMCOORD
123 1
Li	      3.99272      2.24915     -2.10960        -0.000976      0.016610     -0.005100
Li	      7.92172      6.46896    -10.43448        -0.000761      0.003116     -0.015435
Li	     11.85742      6.47158     -6.23888         0.007072     -0.001113     -0.008925
Li	      3.96326      0.02520     -4.13848        -0.000397      0.011844      0.008805
Li	     11.64434     12.51697     -8.26269         0.002348     -0.005784      0.003561
Li	     13.74419      8.46282     -6.13847        -0.002562     -0.002397      0.003362
Li	     15.67462     10.33650    -10.27708         0.000472     -0.010437      0.002123
Li	      5.90348      4.28837     -2.02162        -0.000903      0.017386     -0.002710
Li	      9.80252      8.72051    -10.29512         0.002324      0.012964     -0.004170
Li	      9.78675      1.87831     -4.18780        -0.006244     -0.048927     -0.003208
Li	     11.79781      4.07584     -8.25070         0.000500     -0.003212      0.002430
Li	     13.86263      6.59001    -12.28180        -0.009640      0.005378     -0.009013
Li	     11.75532      1.88158    -10.27215        -0.001851     -0.005267      0.011259
Li	     13.65623      3.92290    -14.35450         0.002066     -0.001280      0.015899
Li	      7.80658      6.24990     -1.95323        -0.004657      0.001894      0.010335
Mn	      7.83360      4.19565     -4.09312         0.027969     -0.003838     -0.024246
Mn	      9.75941      6.31928     -8.17409         0.022508     -0.039563     -0.018886
Mn	     11.70942      8.42102    -12.32302         0.012138     -0.011747      0.011032
Mn	     11.75279      1.90059     -6.16513         0.004074     -0.030192     -0.003373
Mn	      5.81851      8.54015     -6.12941         0.030019     -0.011990      0.005448
Mn	     15.66403      6.17457    -14.41936         0.012790      0.035023      0.006838
Mn	      9.79123      8.53635     -1.95682         0.040279      0.005723     -0.018150
Mn	      7.80415      1.96950    -10.26328        -0.034993      0.013616      0.011539
Mn	     13.66362     12.77007    -10.21454         0.006072     -0.015563     -0.014779
Mn	     13.70696      6.30002     -4.00547         0.002385     -0.024069      0.002458
Mn	      3.88635      4.18670     -8.22376         0.027770     -0.020751     -0.033419
Mn	     17.61433     10.53193    -12.33593         0.015001     -0.020916     -0.039759
Mn	      1.87658      2.22512     -0.10160         0.006984      0.009279      0.024636
Mn	      3.91601      4.24521     -4.13034         0.010003      0.026145      0.016431
Mn	      5.92477      6.30032     -8.12975         0.009988     -0.023981     -0.017468
Mn	      5.93251     -0.08591     -2.04179         0.009791      0.003930      0.006775
Mn	      7.79199      2.10675     -6.30298         0.030971      0.015133      0.025544
Mn	      9.81761      4.15453    -10.33686         0.003670      0.023327      0.012154
Mn	      3.89376      6.47320      2.10154        -0.014198      0.004321     -0.008559
Mn	      5.84667      8.58595     -2.00820        -0.014896     -0.017506     -0.002393
Mn	      7.85612     10.67848     -6.02784        -0.003560     -0.016618     -0.026859
Mn	      7.88087      4.20483      0.11670        -0.005756      0.005077     -0.018969
Mn	      9.83622      6.36021     -4.08284        -0.014900      0.011854     -0.003001
Mn	     11.76273      8.54418     -8.27431        -0.004792     -0.021199     -0.000189
Mn	      1.99432     -0.02051     -2.10425        -0.038550      0.019401     -0.000803
Mn	      7.86308     10.75782     -2.05650         0.014977     -0.012424      0.002835
Mn	      5.92088      4.21983    -10.37193        -0.018700     -0.068977      0.001180
Mn	      5.99580     -2.24954     -4.22602        -0.022547      0.032728      0.010557
Mn	      7.90695     -0.11502     -8.31494        -0.036957      0.030847      0.039350
Mn	      9.87927      1.99170    -12.47011        -0.014829     -0.006797     -0.016029
Mn	      3.93975      4.31451      0.00228        -0.018491      0.009076      0.001278
Mn	      5.95407      6.43585     -4.15885        -0.010864      0.024043      0.021968
Mn	      7.86191      8.55113     -8.23532        -0.009454      0.026078      0.025782
Mn	      7.92295      2.12007     -2.11315         0.017612      0.000357     -0.002913
Mn	      9.83938      4.21830     -6.22192        -0.032574     -0.020856      0.008781
Mn	     11.83704      6.32696    -10.35000        -0.004476      0.030445      0.009594
O	      3.96629     -0.29113     -2.16912        -0.047846     -0.009288      0.009905
O	      5.84790      1.78685     -6.15502        -0.061542     -0.039548     -0.028851
O	      7.86483      3.93956    -10.44205        -0.041677     -0.014274      0.000922
O	      7.90282     -2.53449     -4.02779        -0.044447     -0.012472     -0.008117
O	      9.88494     -0.43654     -8.37224        -0.049512     -0.020259      0.000111
O	     11.85766      1.67798    -12.39089        -0.049048     -0.023372     -0.005317
O	      5.89682      4.00883     -0.02889        -0.044691     -0.023059     -0.005286
O	      7.87125      6.13181     -3.98590        -0.048897     -0.018451     -0.024087
O	      9.79025      8.27734     -8.34406        -0.049397     -0.003704      0.006302
O	      9.85256      1.75081     -2.13306        -0.028267     -0.039297      0.005661
O	     11.82655      3.88421     -6.28484        -0.038056      0.044365     -0.003810
O	     13.79054      6.00692    -10.38346         0.000738     -0.042086      0.001269
O	      5.89232      1.87189     -1.86880        -0.022440      0.016762      0.036888
O	      7.92151      4.05231     -6.03015         0.042154      0.022959      0.048098
O	      9.81051      6.08845    -10.14822        -0.036047     -0.004126      0.037048
O	      9.94221     -0.31767     -4.00232         0.033667      0.008290      0.018562
O	     11.94087      1.74331     -8.19505         0.031535      0.004438     -0.023565
O	     13.88437      3.81481    -12.28725         0.035109      0.014302      0.010589
O	      7.95224      6.17703      0.16514         0.040193      0.019856      0.014042
O	      9.89144      8.30520     -3.90500         0.065446      0.010572      0.046742
O	     11.85751     10.48441     -8.06996         0.047322      0.027936      0.012318
O	     11.92779      3.99864     -1.84000         0.060892      0.046699      0.064977
O	     13.80101      6.10130     -5.97933         0.024881      0.030481      0.019832
O	     15.84315      8.27408    -10.09799         0.031478      0.039418      0.050232
O	      3.81598      2.28127     -4.20415        -0.029013     -0.026838     -0.008306
O	      5.81164      4.39438     -8.39033        -0.055792      0.002119     -0.024574
O	      7.70355      6.59999    -12.51472        -0.031158     -0.009868     -0.016634
O	      7.78455      0.09794     -6.38856        -0.053233     -0.011586     -0.061671
O	      9.83906      2.18725    -10.51122        -0.007581     -0.033555     -0.035172
O	     11.76439      4.32336    -14.64869        -0.003597     -0.011186     -0.024456
O	      5.91793      6.64975     -2.21555         0.060658     -0.004829     -0.052980
O	      7.72776      8.71415     -6.32233        -0.054397     -0.049782     -0.062199
O	      9.63969     10.78543    -10.46643        -0.031658     -0.055500     -0.031683
O	      9.74896      4.39863     -4.27071        -0.052472     -0.012929     -0.033110
O	     11.69608      6.56278     -8.32401        -0.028947     -0.006447      0.004774
O	     13.62477      8.61886    -12.51006        -0.043584     -0.016969     -0.002987
O	      3.89270      2.36476      0.02339         0.039609      0.021555      0.002578
O	      5.88585      4.49466     -4.01940         0.041322      0.019892     -0.002709
O	      7.85164      6.59947     -8.36143         0.036146      0.019144      0.011642
O	      7.88820      0.14222     -1.94423         0.040810     -0.007848     -0.000584
O	      9.74939      2.29164     -6.14243        -0.073162      0.057979     -0.004388
O	     11.78963      4.35162    -10.22129         0.050625     -0.014240     -0.005252
O	      5.89832      6.71263      2.23222         0.054986      0.038579      0.005000
O	      7.79883      8.81640     -1.89976         0.042194      0.032297      0.001514
O	      9.81257     10.98384     -6.15560         0.079700      0.051316      0.016926
O	      9.85315      4.45871      0.17545         0.050137      0.007014     -0.004631
O	     11.79390      6.60448     -4.20722         0.065364      0.020408      0.017579
O	     13.74164      8.73025     -8.12549         0.049395      0.025542      0.003476
O	      2.04607      1.89559     -2.16489         0.003392     -0.020643     -0.064900
O	      3.87229      4.03217     -6.29689        -0.006022     -0.007522     -0.052966
O	      5.88630      6.18639    -10.42910        -0.009445      0.004992     -0.030377
O	      5.90055     -0.35783     -4.26295        -0.012285     -0.039304     -0.039817
O	      7.89322      1.76789     -8.38364         0.001030     -0.065811     -0.088164
O	      9.78306      3.89302    -12.52928         0.001059     -0.040428     -0.031822
O	      3.83835      6.19154     -0.06998        -0.004911     -0.065119     -0.009490
O	      5.84061      8.33922     -4.22535        -0.009965     -0.023672     -0.048663
O	      7.76863     10.44290     -8.33717        -0.005405     -0.048601     -0.050130
O	      7.83943      4.05067     -2.13737        -0.011829      0.015124     -0.036529
O	      9.92993      6.12975     -6.27581        -0.000693     -0.027471     -0.053790
O	     11.71675      8.24291    -10.41593        -0.004456      0.009175     -0.059840
O	      3.95177      4.40908     -1.93572         0.008776     -0.044177      0.056890
O	      5.75406      6.62517     -6.06786        -0.007785      0.024478      0.048827
O	      7.74458      8.69224    -10.20957         0.001028     -0.006540      0.038496
O	      7.88737      2.30644     -4.02031         0.002626      0.049849      0.037446
O	      9.84594      4.42186     -8.13702         0.005714      0.041501      0.046858
O	     11.82642      6.52928    -12.26743         0.007412      0.040137      0.003821
O	      5.85922      8.85962      0.21810         0.013971      0.033379      0.044117
O	      7.75887     10.98043     -3.94353         0.014983      0.058153      0.090522
O	      9.76849     13.10978     -8.07980         0.007458      0.054328      0.060314
O	      9.73746      6.61831     -1.89464        -0.001456      0.031920      0.064168
O	     11.79834      8.71104     -6.03063         0.010326     -0.003599      0.039308
O	     13.77471     10.85662    -10.15374         0.007319      0.009252      0.055500
