# total energy = -845.95919328 eV
 
CRYSTAL
PRIMVEC
3.902172 8.738429 4.269362 
7.882633 -4.446027 -4.226775 
5.885013 6.329640 -0.014000 
PRIMCOORD
124 1
Li	      5.93248      4.23269     -6.14099         0.016511     -0.029551      0.002732
Li	      9.89104      1.92052     -8.23975         0.024147     -0.046552      0.014970
Li	     11.87857      4.39286    -12.62552        -0.008063      0.015376     -0.009566
Li	      7.86468      8.64222     -4.05612        -0.000293      0.003951     -0.000565
Li	     11.81932      6.35964     -6.16898         0.001031      0.003474      0.010288
Li	     13.82797      8.75806    -10.48356        -0.009298      0.007260     -0.005275
Li	      5.92574      1.96160     -8.25374        -0.015813      0.002944     -0.004847
Li	     13.72083      8.46457     -6.13662         0.006241     -0.006172     -0.009735
Li	     11.84692      2.15927    -14.59119         0.000242     -0.009323      0.002360
Li	      7.85944      6.26639     -6.15389        -0.010541      0.006034     -0.007969
Li	     11.75498      4.04327     -8.31319         0.006506     -0.019528     -0.007481
Li	     13.78645      6.54805    -12.46435         0.001987     -0.006294      0.006260
Li	      7.86515      3.97178     -8.24421        -0.009633     -0.043567      0.013770
Li	     11.77395      1.71274    -10.34640        -0.000300     -0.019853      0.002550
Li	      9.79272      8.37708     -6.14775        -0.001536     -0.027108      0.003328
Li	     13.70378      6.12227     -8.25876         0.007334     -0.010241     -0.004384
Mn	      7.85978      4.29125     -3.98435        -0.022945     -0.048635      0.005240
Mn	      9.79073      6.32738     -8.28200         0.001703      0.016705     -0.005050
Mn	      5.78097      2.14752     -0.00148        -0.006193      0.059758     -0.036065
Mn	     11.78261      2.06965     -6.07091         0.003791     -0.076959      0.010924
Mn	      5.84641      8.48125     -6.15459         0.014343     -0.029094      0.018839
Mn	      9.79017     -0.10308     -2.10459         0.030286      0.055520     -0.013196
Mn	      5.86089     -0.14602     -6.13722         0.034371     -0.033877     -0.010627
Mn	     11.75220     10.68476     -6.12756        -0.002708     -0.009682      0.011636
Mn	      7.74207      6.50718      2.13857        -0.014634      0.040388     -0.032581
Mn	      9.78723     -2.36828     -8.22697         0.057449     -0.054328      0.007813
Mn	      7.80369     12.84152     -4.00453         0.014251     -0.025102      0.018742
Mn	     17.63751     10.58646    -12.38045         0.030706      0.033281     -0.018666
Mn	      1.93926      2.16526      0.01166        -0.011392      0.015360     -0.007988
Mn	      4.00361      4.11344     -3.75205         0.019393     -0.028304     -0.002317
Mn	      5.93692      6.34559     -8.37820        -0.016974     -0.002362      0.024129
Mn	      5.84188      0.02989     -2.24711        -0.005736      0.002237      0.020248
Mn	      7.94774      1.90946     -5.88604         0.012568     -0.002769     -0.002090
Mn	      9.73769      4.25917    -10.58994         0.014785     -0.009488      0.034652
Mn	      3.89208      6.52685      2.16179        -0.008701      0.016814      0.004044
Mn	      5.90838      8.58863     -1.73250         0.017826     -0.006896     -0.037329
Mn	      7.88634     10.73008     -6.25029        -0.014411      0.018695      0.018159
Mn	      7.79603      4.39178     -0.09452        -0.002912     -0.001249      0.030627
Mn	      9.85669      6.37737     -3.85404         0.013584     -0.004291     -0.033961
Mn	     11.68223      8.64302     -8.46032         0.026735      0.002367      0.027824
Mn	      1.98919     -0.02197     -2.11610        -0.017104     -0.003505      0.019366
Mn	      3.94983      2.06788     -6.19035         0.004282      0.011696     -0.001278
Mn	      9.84155     12.91683     -6.22810        -0.016777      0.059122     -0.004017
Mn	      5.96404     -2.23088     -4.24012        -0.006394     -0.036519      0.006133
Mn	      7.90441     -0.12706     -8.31462         0.002370     -0.022495      0.026456
Mn	     13.74942     10.71982     -8.29405        -0.014266      0.019458     -0.003027
Mn	      3.94046      4.37427      0.03320        -0.006149      0.003772      0.000899
Mn	      5.92083      6.47840     -4.03765        -0.019784     -0.025434     -0.010953
Mn	      7.87631      8.55882     -8.37620        -0.011453      0.061069      0.002420
Mn	      7.91522      2.16316     -2.09595         0.002052      0.000771     -0.001821
Mn	      9.87895      4.28494     -6.16256        -0.025864     -0.042176      0.014934
Mn	     11.78730      6.35965    -10.44289        -0.006807      0.037593     -0.000324
O	      3.91624     -0.33339     -2.06104        -0.042851     -0.023042     -0.022631
O	      5.87768      1.85633     -6.25231        -0.089061     -0.012422     -0.001800
O	      7.84436      3.88263    -10.30277        -0.035256     -0.010439     -0.008512
O	      7.86776     -2.56843     -4.14496        -0.077708     -0.018833     -0.019116
O	      9.82487     -0.35379     -8.37346        -0.075117      0.004718     -0.012672
O	     11.81864      1.67415    -12.49707        -0.045926      0.025473     -0.004852
O	      5.86806      4.04490      0.08800        -0.054536     -0.024107     -0.031275
O	      7.88198      6.28066     -4.14987        -0.026539      0.007562      0.001067
O	      9.78127      8.26660     -8.19252        -0.038083     -0.021181     -0.007952
O	      9.81794      1.80851     -1.99884        -0.078194     -0.017851     -0.029721
O	     11.82462      4.06947     -6.28411        -0.049201      0.013140      0.013778
O	     13.75507      6.06051    -10.38283        -0.053317      0.019493      0.004420
O	      5.94582      1.96056     -1.93475         0.014179      0.033068      0.038015
O	      7.95045      4.13800     -6.04341         0.035548      0.075782      0.005168
O	      9.87680      6.18035    -10.20443         0.006155      0.070764      0.058680
O	      9.89106     -0.31283     -4.01572         0.018709      0.037755      0.047179
O	     11.88072      1.89938     -8.18418         0.050931      0.074045      0.015359
O	     13.79272      3.85211    -12.34116         0.047832      0.025307      0.006130
O	      7.90179      6.31319      0.21156         0.025635      0.036207      0.042769
O	      9.80236      8.39879     -3.92099        -0.010178      0.022251      0.017711
O	     11.83900     10.55779     -8.05899         0.033803      0.059377      0.039896
O	     11.84694      4.03841     -1.87363         0.025912      0.035894      0.042768
O	     13.74322      6.17259     -6.06517         0.000879      0.024851      0.009806
O	     15.75618      8.23060    -10.19995         0.039033      0.006861     -0.008974
O	      3.80204      2.20761     -4.28599        -0.054677     -0.082090     -0.064876
O	      5.96532      4.40464     -8.38532         0.041460     -0.010076     -0.019839
O	      7.75446      6.53528    -12.57723        -0.024073     -0.034703     -0.025972
O	      7.75435     -0.00292     -6.40834        -0.066381     -0.077691     -0.046376
O	      9.79248      2.12503    -10.53441        -0.018262     -0.031962     -0.017465
O	     11.68549      4.30632    -14.65761        -0.015069     -0.027558     -0.016285
O	      5.84428      6.69837     -2.11436        -0.015249     -0.036669     -0.049389
O	      7.90412      8.79965     -6.27435         0.033415     -0.027923     -0.027947
O	      9.69687     10.90187    -10.42922        -0.034115     -0.031370     -0.032407
O	      9.80378      4.48672     -4.23893        -0.021172     -0.018361     -0.039352
O	     11.73066      6.52175     -8.42009        -0.040318     -0.050096     -0.001571
O	     13.62957      8.67586    -12.51503        -0.026234     -0.028959     -0.013814
O	      3.89572      2.44725     -0.03656         0.071588      0.012427      0.025571
O	      5.95640      4.56324     -4.11916         0.092730      0.058209     -0.017057
O	      7.87248      6.58083     -8.16224         0.062383      0.006133     -0.008122
O	      7.80826      0.23180     -2.01455         0.051047      0.021260      0.000307
O	      9.89251      2.36812     -6.25835         0.102899      0.062127     -0.014543
O	     11.70208      4.37401    -10.43714        -0.054701      0.045141     -0.001719
O	      5.85400      6.79394      2.13224         0.083047      0.018521      0.010723
O	      7.81161      8.88410     -2.04094         0.032878      0.014208      0.007439
O	      9.83206     10.93799     -6.01196         0.060333      0.016933     -0.027554
O	      9.76774      4.58191      0.13615         0.049606      0.026375      0.001895
O	     11.75281      6.68506     -4.17576         0.032821     -0.000172     -0.003633
O	     13.65570      8.73517     -8.29872        -0.048106      0.033758     -0.001916
O	      1.99219      1.88099     -2.15075        -0.018381     -0.008294     -0.072666
O	      3.94072      4.03793     -6.33769        -0.008871     -0.012779     -0.009635
O	      5.84729      6.06045    -10.46850        -0.012823     -0.031514     -0.037628
O	      5.97338     -0.33137     -4.28027        -0.010747     -0.021376     -0.094812
O	      7.92616      1.83464     -8.43518        -0.000874      0.003330     -0.062492
O	      9.94801      3.86088    -12.61072        -0.012489     -0.043629     -0.029277
O	      3.95831      6.27969      0.01836        -0.013914     -0.000363     -0.073699
O	      5.88853      8.43596     -4.21847         0.004080     -0.009324     -0.007785
O	      7.78130     10.44058     -8.34273        -0.010031     -0.038268     -0.033279
O	      7.94102      4.06618     -2.11891        -0.009831     -0.019985     -0.109234
O	      9.87090      6.23550     -6.32272        -0.003817     -0.010816     -0.043372
O	     11.88219      8.24009    -10.48674        -0.008762     -0.051563     -0.030285
O	      3.84902      4.64668     -1.84004         0.014080      0.072876      0.091779
O	      5.85124      6.52861     -6.03631         0.004576     -0.020680      0.050470
O	      7.79383      8.76848    -10.23103        -0.000353     -0.013300      0.081285
O	      7.82396      2.41133     -3.95645         0.021928      0.038108      0.093617
O	      9.79500      4.40328     -8.15388         0.004236      0.008305      0.033403
O	     11.80018      6.49388    -12.33494         0.017108     -0.018947      0.068862
O	      5.77642      8.95255      0.26237        -0.001619      0.040648      0.057699
O	      7.79351     10.89099     -3.92292         0.000185     -0.022819      0.014049
O	      9.75608     13.12791     -8.08596         0.015699     -0.012610      0.076079
O	      9.74635      6.71745     -1.84519         0.011277      0.038666      0.061845
O	     11.73763      8.75804     -6.03380         0.009388      0.030565      0.011334
O	     13.76418     10.85418    -10.18803         0.013644     -0.010659      0.064174
