# total energy = -846.12626499 eV
 
CRYSTAL
PRIMVEC
3.926336 8.752616 4.286670 
7.869627 -4.431007 -4.230696 
5.895827 6.319410 -0.014074 
PRIMCOORD
124 1
Li	      5.93520      4.25552     -6.16223         0.019208     -0.026775      0.007912
Li	      9.86321      2.11811     -8.29042         0.010522     -0.008319      0.003613
Li	      7.90277      8.56351     -3.99318         0.002175     -0.002049      0.000142
Li	      9.88173     11.04404     -8.29069        -0.000849      0.034784     -0.015793
Li	     11.84044      6.31719     -6.11338         0.002814     -0.004756      0.000925
Li	     13.93756      8.80627    -10.54963        -0.004832      0.017338      0.001037
Li	      5.92259      2.03654     -8.24387         0.007988     -0.004126      0.004657
Li	      9.86841     -0.15604    -10.34812        -0.000386     -0.001915      0.001719
Li	      7.82706      6.31958     -6.18080        -0.011162     -0.010779      0.000303
Li	      9.73804      8.26221    -10.40095         0.007480     -0.002686      0.012320
Li	     11.77414      4.12222     -8.29708        -0.007854     -0.000956     -0.000439
Li	      7.83233      4.10703     -8.25993        -0.011388     -0.013060      0.004180
Li	     11.77173      1.88534    -10.36565        -0.014889     -0.014472      0.004056
Li	      9.79990      8.38130     -6.06501        -0.002818     -0.022821     -0.000066
Li	     11.72150     10.92146    -10.31510        -0.002451     -0.000566      0.002685
Li	     13.75439      6.14904     -8.16823        -0.006027     -0.020789     -0.003685
Mn	      7.83792      4.31420     -3.99601         0.015162     -0.072471      0.025254
Mn	      9.79812      6.34038     -8.23226        -0.025506      0.000246     -0.013045
Mn	      5.84146      2.17911     -0.00184         0.015105      0.012363     -0.032530
Mn	     11.77163      2.09352     -6.11437        -0.005403     -0.054441      0.012755
Mn	     13.72630      4.14365    -10.35917        -0.021555      0.016208     -0.034445
Mn	      9.74009     -0.04417     -2.07568        -0.028702      0.024563     -0.037340
Mn	      5.87461     -0.15334     -6.10459         0.040688     -0.046681      0.026337
Mn	     11.77290     10.67470     -6.09154         0.018240      0.037676      0.017415
Mn	     13.74937     12.80921    -10.22206         0.046929      0.081503     -0.025514
Mn	      1.93634      2.03987     -3.99682         0.049027     -0.033884      0.014421
Mn	      7.85108     12.86967     -3.95246         0.013663      0.036982      0.002680
Mn	     17.63207     10.57430    -12.33244         0.022552      0.066477     -0.037058
Mn	      1.89961      2.17586     -0.06766        -0.017748     -0.015270      0.024277
Mn	      3.99840      4.14548     -3.79639         0.007075     -0.039140     -0.003402
Mn	      5.82287      6.51863     -8.54983        -0.006523      0.024507      0.007440
Mn	      5.90114     -0.05913     -2.08817        -0.019299     -0.014065     -0.017673
Mn	      7.94021      1.92633     -5.89096         0.009306     -0.049521      0.003492
Mn	      9.73359      4.36134    -10.71236        -0.005874      0.040057      0.006447
Mn	      3.85926      6.65228      2.04010         0.000483      0.041940      0.029328
Mn	      5.94408      8.57483     -1.70973         0.009454     -0.025182     -0.023499
Mn	      7.83641     10.75341     -6.20770        -0.001526      0.011776      0.004153
Mn	      7.84901      4.43822     -0.11873        -0.001300      0.025281      0.028987
Mn	      9.87076      6.37549     -3.83085         0.006548     -0.034737     -0.018689
Mn	     11.81104      8.49892     -8.24881         0.000590      0.003217      0.002103
Mn	      2.02096     -0.06870     -2.10256        -0.009919      0.011095      0.059195
Mn	      3.97375      2.05616     -6.16864         0.027026     -0.027272      0.047852
Mn	      9.83855     12.90733     -6.17743         0.022677      0.068479     -0.009485
Mn	      5.96194     -2.24145     -4.22612        -0.000756      0.020494      0.053815
Mn	      7.90653     -0.15868     -8.29953         0.015634     -0.014701      0.045208
Mn	     13.79831     10.67816     -8.27451         0.036777      0.065509      0.007413
Mn	      3.91344      4.39374      0.00450        -0.014990      0.003679     -0.010445
Mn	      5.92796      6.51873     -4.04353        -0.006952     -0.037235      0.012189
Mn	      7.87609      8.60083     -8.28423        -0.040808      0.016523     -0.026508
Mn	      7.89946      2.17346     -2.09724        -0.011550     -0.017196     -0.005204
Mn	      9.86194      4.29985     -6.15788        -0.015438     -0.034199      0.016084
Mn	     11.87166      6.38805    -10.43042        -0.038136      0.002056     -0.006988
O	      3.94802     -0.38096     -1.99104        -0.062331     -0.035545     -0.032641
O	      5.89051      1.85107     -6.24242        -0.081946     -0.008648     -0.005191
O	      7.79992      3.85011    -10.29947        -0.098916     -0.062209      0.005325
O	      7.86465     -2.58923     -4.11952        -0.056331     -0.025092     -0.028381
O	      9.82022     -0.38595     -8.36455        -0.080808     -0.011270     -0.000348
O	     11.75246      1.62691    -12.40034        -0.102418     -0.056043      0.000974
O	      5.86401      4.12264      0.14613        -0.045457     -0.010877      0.000947
O	      7.88377      6.31119     -4.15078        -0.035026      0.008650     -0.001261
O	      9.85286      8.30060     -8.20744        -0.038279      0.003254     -0.008313
O	      9.80321      1.87122     -2.02472        -0.049598     -0.028368     -0.018500
O	     11.82049      4.08689     -6.25921        -0.030479      0.004462     -0.004715
O	     13.79176      6.09595    -10.22011        -0.033609     -0.009649     -0.011677
O	      5.95420      1.92525     -1.89548         0.024382      0.032236      0.048239
O	      7.93397      4.15838     -6.06613         0.032169      0.067812      0.001658
O	      9.96602      6.31084    -10.16301         0.046150      0.090172      0.036683
O	      9.86640     -0.28257     -4.01254         0.035185      0.032406      0.032835
O	     11.86501      1.94544     -8.17756         0.032069      0.067000      0.000361
O	     13.87072      4.02444    -12.27295         0.053106      0.080705      0.054449
O	      7.94996      6.34051      0.23507         0.036685      0.008000      0.025210
O	      9.83853      8.39477     -3.91295        -0.020140      0.010821     -0.003316
O	     11.79409     10.44050     -8.10152         0.011726      0.025966      0.009475
O	     11.87217      4.10972     -1.88331         0.033468     -0.002172      0.024083
O	     13.77740      6.15904     -6.01380        -0.019338      0.016914     -0.005526
O	     15.73548      8.23423    -10.14383         0.014032      0.015418      0.015235
O	      3.82863      2.20898     -4.26877        -0.055807     -0.083081     -0.052950
O	      5.83140      4.27396     -8.39674        -0.033668     -0.059863     -0.008666
O	      7.76390      6.50793    -12.55629        -0.027444     -0.022317     -0.025545
O	      7.76805      0.00445     -6.39884        -0.047399     -0.081773     -0.058576
O	      9.75616      2.05008    -10.52797        -0.030732     -0.062063     -0.004358
O	     11.72809      4.29378    -14.66459        -0.047227     -0.017666     -0.022940
O	      5.84974      6.68889     -2.11131        -0.020229     -0.000781     -0.034107
O	      7.86264      8.77544     -6.23837         0.003820     -0.027501      0.001444
O	      9.74670     10.95375    -10.37497        -0.005614     -0.018685      0.003044
O	      9.78536      4.48571     -4.23274        -0.020285     -0.012044     -0.027523
O	     11.82326      6.55280     -8.31730         0.019843     -0.012712     -0.005820
O	     13.65286      8.76766    -12.51104        -0.033397     -0.021661     -0.006108
O	      3.89411      2.45098      0.11789         0.048577      0.013555      0.001456
O	      5.94480      4.60354     -4.15997         0.099435      0.061594     -0.007872
O	      7.87050      6.60819     -8.19585         0.041455      0.016732      0.004677
O	      7.85915      0.25304     -2.11487         0.059823      0.021926      0.032030
O	      9.87889      2.38788     -6.27647         0.108036      0.047857     -0.011308
O	     11.82185      4.42174    -10.31756         0.081426      0.022533      0.005528
O	      5.85531      6.72803      2.13641         0.046772     -0.004008      0.016151
O	      7.85556      8.88382     -2.01069         0.022606      0.019371     -0.012541
O	      9.81593     10.89631     -6.12941         0.036407      0.001121     -0.001162
O	      9.79517      4.59828      0.01235         0.050724      0.011781      0.022266
O	     11.78117      6.66827     -4.13364         0.029268      0.013837     -0.008276
O	     13.77084      8.67562     -8.19805         0.033131      0.000350     -0.001148
O	      2.04051      1.83749     -2.14271        -0.003920     -0.011425     -0.077245
O	      3.97418      4.02629     -6.30304        -0.004238     -0.000905     -0.048963
O	      5.91293      6.00685    -10.49002         0.007638     -0.087354     -0.077793
O	      5.97946     -0.33662     -4.25477        -0.005324     -0.026076     -0.081790
O	      7.90482      1.81509     -8.45343        -0.009505      0.000238     -0.048747
O	      9.88016      3.78148    -12.61628         0.004829     -0.091542     -0.089771
O	      3.92827      6.29367     -0.02215         0.001744     -0.013981     -0.067415
O	      5.93174      8.46386     -4.16633        -0.010769      0.001310     -0.025138
O	      7.97589     10.48397     -8.29926         0.011085     -0.022421     -0.039105
O	      7.88425      4.08865     -2.13857         0.006608     -0.013828     -0.084244
O	      9.86087      6.25186     -6.28613        -0.010369     -0.007293     -0.019846
O	     11.86860      8.31023    -10.40813         0.003594      0.001802     -0.030570
O	      3.85621      4.63596     -1.85744        -0.005024      0.050825      0.095356
O	      5.84533      6.64382     -6.01650         0.010101      0.011093      0.032658
O	      7.86688      8.78395    -10.15316         0.006623      0.010016      0.058295
O	      7.80194      2.43427     -3.96548        -0.000510      0.066676      0.095119
O	      9.78790      4.41133     -8.13830         0.006325      0.002739      0.033992
O	     11.77159      6.60219    -12.28449        -0.003753      0.019552      0.061861
O	      5.85078      8.92343      0.29309        -0.004739      0.027706      0.047611
O	      7.84681     10.93578     -3.87165        -0.000706      0.027726      0.005496
O	      9.77318     13.05104     -8.04818         0.001535     -0.025284      0.044971
O	      9.78421      6.73674     -1.82771        -0.002736      0.037878      0.055257
O	     11.76773      8.72906     -6.01933        -0.000491      0.024732      0.009989
O	     13.66339     10.82307    -10.16886         0.005703     -0.015322      0.048137
