# total energy = -846.16714376 eV
 
CRYSTAL
PRIMVEC
3.921788 8.735442 4.278046 
7.881296 -4.435549 -4.217465 
5.878935 6.331946 -0.013914 
PRIMCOORD
124 1
Li	      5.92863      4.26700     -6.15674         0.006214     -0.034246      0.010160
Li	      9.87877      2.05828     -8.26435         0.003219     -0.023804      0.002383
Li	      7.89174      8.56385     -4.02216         0.006978     -0.011948     -0.004220
Li	      9.96320     11.04261     -8.43795        -0.019981      0.019101      0.004719
Li	     11.83867      6.35234     -6.10567         0.008863     -0.016979     -0.003264
Li	     13.85213      8.73508    -10.53801        -0.001783      0.023603      0.000567
Li	      5.92100      2.06330     -8.24400         0.012650     -0.004222      0.004628
Li	      9.84608     -0.19019    -10.36576         0.016852      0.000835      0.011729
Li	     11.82261      2.21683    -14.58369         0.008451      0.005850      0.005352
Li	      7.86296      6.32932     -6.16492        -0.005109     -0.035444      0.001226
Li	     11.77302      4.09923     -8.29759        -0.005162     -0.029996     -0.007885
Li	     13.68150      6.03822    -12.52397         0.022770     -0.009644      0.011272
Li	      7.85483      4.04444     -8.25027        -0.009794     -0.026542      0.008218
Li	     11.76325      1.88247    -10.37901        -0.001410     -0.020837      0.010625
Li	      9.81475      8.36391     -6.07327        -0.016680     -0.018729     -0.010533
Li	     13.73424      6.15189     -8.19248         0.005286     -0.026623      0.002293
Mn	      7.84033      4.28969     -3.98651        -0.013943     -0.045632      0.016935
Mn	      9.81159      6.32888     -8.24460        -0.025026      0.020575     -0.020354
Mn	      5.80242      2.14783      0.03308        -0.000597      0.029172     -0.044586
Mn	     11.78274      2.07891     -6.09380        -0.021543     -0.046163      0.024274
Mn	      5.85791      8.54429     -6.14487        -0.005419      0.013328     -0.025880
Mn	      9.78558     -0.06326     -2.10857         0.017887      0.021185     -0.029004
Mn	      5.86117     -0.14282     -6.11907         0.030196     -0.027881      0.019924
Mn	     11.77203     10.66396     -6.08996         0.009155      0.012616      0.012319
Mn	      7.75047      6.47538      2.15304         0.001340      0.046125     -0.011770
Mn	      1.92402      2.08006     -3.98869         0.022130     -0.037643      0.033691
Mn	      7.82298     12.87453     -3.99202         0.014291      0.012451      0.013691
Mn	     17.64458     10.57440    -12.36724         0.012061      0.057974     -0.020015
Mn	      1.94579      2.15157      0.02968        -0.006348      0.010061     -0.009072
Mn	      3.98778      4.16316     -3.79822         0.009322     -0.048533      0.012154
Mn	      5.90477      6.44988     -8.43024        -0.010163      0.029570      0.011288
Mn	      5.84284     -0.04771     -2.16244        -0.021711      0.008600      0.007869
Mn	      7.93226      1.93985     -5.90314         0.009194     -0.044285      0.011571
Mn	      9.75583      4.29749    -10.68038         0.007606      0.038878     -0.001291
Mn	      3.86731      6.62619      2.02092         0.008327      0.013521      0.028387
Mn	      5.92607      8.58591     -1.72317        -0.000983     -0.001925     -0.011572
Mn	      7.86374     10.73230     -6.19087        -0.004721     -0.008937     -0.007099
Mn	      7.79640      4.39469     -0.09797         0.005271      0.012779      0.034016
Mn	      9.87050      6.36327     -3.84121        -0.000659      0.014422     -0.015725
Mn	     11.76849      8.52415     -8.35406        -0.007634     -0.009658      0.010725
Mn	      2.00184     -0.01771     -2.11005        -0.012075     -0.001923      0.023100
Mn	      3.95619      2.08294     -6.18574         0.019961     -0.022796      0.049161
Mn	      9.84074     12.90834     -6.20225         0.004307      0.028729     -0.017511
Mn	      5.94139     -2.23777     -4.24011        -0.006250     -0.016445      0.027927
Mn	      7.90686     -0.13208     -8.28585         0.017602     -0.020482      0.038858
Mn	     13.74455     10.68283     -8.30470         0.009704      0.043545     -0.020347
Mn	      3.95867      4.36729      0.01420        -0.008283      0.002844     -0.009186
Mn	      5.92553      6.50117     -4.05416        -0.026570     -0.010552     -0.007793
Mn	      7.93865      8.57634     -8.34829        -0.040707      0.027681     -0.033956
Mn	      7.88818      2.14962     -2.08352        -0.000614      0.017577      0.000609
Mn	      9.87324      4.28543     -6.14929        -0.019126     -0.018465     -0.005677
Mn	     11.80867      6.36822    -10.42188        -0.033380      0.016680     -0.027260
O	      3.91431     -0.36632     -2.01637        -0.054718     -0.033389     -0.033485
O	      5.87886      1.86391     -6.25359        -0.064399     -0.013681      0.013272
O	      7.81288      3.87500    -10.29065        -0.095742     -0.054177     -0.016205
O	      7.86899     -2.59168     -4.11867        -0.067497     -0.024926     -0.029288
O	      9.82808     -0.34846     -8.35453        -0.062686      0.000282     -0.000866
O	     11.75637      1.66003    -12.50518        -0.100248     -0.025391     -0.010720
O	      5.86575      4.06228      0.09398        -0.061727     -0.030588     -0.013039
O	      7.88062      6.29086     -4.15454        -0.031222      0.007188      0.011439
O	      9.86084      8.28295     -8.12228        -0.038820     -0.004506     -0.015737
O	      9.80405      1.85273     -2.03013        -0.072003     -0.033254     -0.025109
O	     11.82551      4.07705     -6.25817        -0.023129      0.003236     -0.004139
O	     13.78508      6.07693    -10.35123        -0.037787     -0.007692     -0.017690
O	      5.93896      1.90705     -1.89995         0.033916      0.023171      0.044677
O	      7.93611      4.14132     -6.05968         0.064319      0.053259      0.022114
O	      9.93182      6.21820    -10.16369         0.068180      0.055136      0.046436
O	      9.89290     -0.30597     -4.00307         0.038185      0.022111      0.048050
O	     11.87348      1.92499     -8.18612         0.062658      0.056389      0.023770
O	     13.91281      4.03402    -12.29399         0.048084      0.076274      0.038288
O	      7.91017      6.30852      0.20531         0.031865      0.023268      0.020765
O	      9.82809      8.39000     -3.90935        -0.009297     -0.026737      0.016475
O	     11.77941     10.43845     -8.05554         0.044998      0.017794      0.031669
O	     11.86076      4.10222     -1.87168         0.031619      0.015490      0.029771
O	     13.76624      6.17898     -6.03214         0.002082     -0.027569      0.019154
O	     15.73320      8.23665    -10.16807         0.025939     -0.000965      0.020210
O	      3.81882      2.24170     -4.28445        -0.052694     -0.072845     -0.054957
O	      5.82441      4.28367     -8.39121        -0.035459     -0.077792     -0.025314
O	      7.74911      6.51665    -12.56908        -0.043988     -0.018147     -0.031619
O	      7.75595      0.01822     -6.38297        -0.060879     -0.070777     -0.064021
O	      9.76663      2.08504    -10.53552        -0.049844     -0.049052     -0.025798
O	     11.65758      4.26620    -14.69804        -0.027457     -0.014551     -0.030142
O	      5.84718      6.69579     -2.12911        -0.014568     -0.006834     -0.032491
O	      7.88944      8.77845     -6.21870         0.012385      0.010637     -0.024636
O	      9.69754     10.97397    -10.41093        -0.048727     -0.021685     -0.015077
O	      9.78769      4.47040     -4.22207        -0.012009     -0.002050     -0.034681
O	     11.80817      6.53693     -8.36809         0.010016      0.008122     -0.026789
O	     13.62689      8.71850    -12.51973        -0.029509      0.002752     -0.012709
O	      3.90322      2.44945     -0.00215         0.072341      0.027530      0.023771
O	      5.94015      4.58651     -4.15490         0.116467      0.053745     -0.005179
O	      7.91247      6.59321     -8.18384         0.086606      0.011585     -0.004542
O	      7.83014      0.20367     -1.98124         0.051914      0.025143     -0.002756
O	      9.88550      2.37109     -6.26032         0.118998      0.057384     -0.007212
O	     11.79425      4.37252    -10.33371         0.033147      0.032647      0.007170
O	      5.83461      6.80235      2.09756         0.066160      0.028808      0.036098
O	      7.83448      8.89097     -2.02934         0.012158      0.038708     -0.021788
O	      9.82754     10.91351     -6.12122         0.036367      0.016832      0.016759
O	      9.78111      4.56690      0.12962         0.051207      0.032012     -0.000209
O	     11.78386      6.67431     -4.12483         0.015827      0.040347     -0.027446
O	     13.74779      8.67618     -8.23470         0.023090      0.016324      0.017298
O	      2.02356      1.88377     -2.13617        -0.013521     -0.017587     -0.088860
O	      3.95379      4.06295     -6.33843        -0.017690     -0.022297     -0.054295
O	      5.82119      6.04942    -10.47709         0.021274     -0.075040     -0.054480
O	      5.96093     -0.33815     -4.26092        -0.004715     -0.023470     -0.090752
O	      7.90765      1.84497     -8.42660        -0.006285     -0.024692     -0.075694
O	      9.80092      3.80311    -12.63682         0.013381     -0.068649     -0.063611
O	      3.95196      6.28540     -0.02143        -0.000661     -0.013859     -0.088603
O	      5.91506      8.45652     -4.19732        -0.009299     -0.024631     -0.048574
O	      7.92523     10.47630     -8.32296        -0.004265     -0.014364     -0.046918
O	      7.89375      4.05795     -2.12390         0.006335     -0.018188     -0.089678
O	      9.87951      6.23411     -6.27817        -0.002031     -0.018172     -0.039204
O	     11.91268      8.24910    -10.43576         0.002045     -0.020269     -0.041090
O	      3.86886      4.63606     -1.85717        -0.006217      0.060637      0.098487
O	      5.85394      6.60249     -6.06361         0.004188      0.020964      0.058955
O	      7.82563      8.79619    -10.20308         0.001070      0.009767      0.071749
O	      7.79878      2.40580     -3.95830        -0.006813      0.056153      0.101126
O	      9.79767      4.39747     -8.12459         0.008956      0.029634      0.044165
O	     11.79008      6.54864    -12.29216        -0.003241      0.010884      0.064564
O	      5.82682      8.95358      0.27763        -0.011137      0.027063      0.062938
O	      7.82007     10.94212     -3.91435        -0.009998      0.022386      0.037574
O	      9.77852     13.05570     -8.07503         0.006630      0.002685      0.084944
O	      9.76897      6.72240     -1.84098        -0.004192      0.026969      0.068598
O	     11.77006      8.72979     -5.99698         0.008460      0.029282      0.036782
O	     13.76714     10.81795    -10.20358        -0.000362     -0.002145      0.072664
