# total energy = -845.94944891 eV
 
CRYSTAL
PRIMVEC
3.894650 8.730489 4.265414 
7.877198 -4.444367 -4.226165 
5.876480 6.336236 -0.013996 
PRIMCOORD
124 1
Li	      5.91108      4.32916     -6.15914        -0.004512      0.001652     -0.017864
Li	      9.86605      2.03400     -8.28442         0.005748     -0.019465     -0.009792
Li	     11.85297      4.37454    -12.67339         0.021451      0.011608     -0.011524
Li	      7.86688      8.56266     -4.03146         0.000464      0.005363     -0.010874
Li	      9.92885     11.03535     -8.44900        -0.015793      0.010358     -0.007384
Li	     11.80794      6.34694     -6.14843        -0.004969      0.003716     -0.011115
Li	     13.88283      8.82660    -10.52403        -0.005525      0.013488      0.004411
Li	      5.91610      2.06149     -8.26724         0.006836     -0.023175     -0.006714
Li	      9.83986     -0.21875    -10.38580         0.008655     -0.010456     -0.013455
Li	      7.82839      6.35213     -6.18387         0.002857     -0.004926     -0.005615
Li	     11.74699      4.08502     -8.31087        -0.010376     -0.010210     -0.016843
Li	     13.77982      6.42073    -12.48088         0.012382      0.047118      0.003512
Li	      7.82093      4.02237     -8.26763        -0.012498     -0.012726     -0.004217
Li	     11.75402      1.78703    -10.36531        -0.004474     -0.017009      0.013009
Li	      9.78366      8.35554     -6.12401         0.008542     -0.006626     -0.010843
Li	     13.70346      6.12906     -8.23700         0.004227     -0.030691     -0.006892
Mn	      7.82425      4.28835     -3.98832        -0.013922     -0.055884      0.048796
Mn	      9.75927      6.31247     -8.28301        -0.005542      0.020233     -0.012691
Mn	      5.79594      2.13162      0.01563        -0.040143      0.052620     -0.001267
Mn	     11.75320      2.05655     -6.09746         0.004366     -0.081480      0.052612
Mn	      5.83137      8.49857     -6.15465        -0.016531     -0.011446     -0.006008
Mn	      9.76002     -0.07598     -2.13367         0.003695      0.004396      0.010260
Mn	      5.87313     -0.14155     -6.12066         0.046523     -0.037580      0.034203
Mn	     11.74267     10.65309     -6.13000         0.013444      0.026036      0.020588
Mn	      7.74071      6.47869      2.13130        -0.003980      0.048699     -0.010207
Mn	      1.91703      2.07754     -3.98431         0.011422     -0.047112      0.028167
Mn	      7.79450     12.86184     -4.00769         0.016940      0.024728      0.025401
Mn	     17.58525     10.55158    -12.37651         0.023899      0.060831     -0.011690
Mn	      1.94010      2.13670      0.03095        -0.022238     -0.009689      0.002295
Mn	      3.98648      4.13655     -3.78110        -0.000552     -0.022850     -0.002193
Mn	      5.85649      6.42223     -8.52240        -0.003399      0.007154      0.019068
Mn	      5.81580      0.02502     -2.25093         0.011246      0.010810      0.035012
Mn	      7.89935      1.97471     -5.94660         0.003899     -0.040147      0.001337
Mn	      9.71599      4.25959    -10.61301         0.030727      0.019235      0.016079
Mn	      3.85229      6.61680      2.02266         0.008007      0.006013      0.033429
Mn	      5.89941      8.57843     -1.72912         0.013393     -0.015927     -0.032744
Mn	      7.84693     10.70283     -6.19070        -0.006475      0.017150     -0.000904
Mn	      7.81368      4.37684     -0.07019         0.005301      0.025823      0.035677
Mn	      9.84973      6.36158     -3.84648         0.003346     -0.033309     -0.018920
Mn	     11.72981      8.54150     -8.40794         0.009971      0.012929      0.010263
Mn	      1.98668     -0.01992     -2.10391        -0.005757      0.005101      0.043458
Mn	      3.95753      2.07334     -6.18282        -0.031174      0.007574      0.008685
Mn	      9.80048     12.89628     -6.23411        -0.014420      0.052722     -0.040359
Mn	      5.96862     -2.25881     -4.21986        -0.005389     -0.014736      0.021086
Mn	      7.91119     -0.12243     -8.30273         0.003727     -0.001514     -0.013790
Mn	     13.75189     10.70278     -8.34548         0.007921      0.021886     -0.017816
Mn	      3.95200      4.34972      0.02140         0.003637      0.004827     -0.000933
Mn	      5.90228      6.48874     -4.05013        -0.021494     -0.010813     -0.009857
Mn	      7.88002      8.57927     -8.37443        -0.011049      0.013975     -0.014152
Mn	      7.88216      2.16474     -2.10390         0.012959      0.002081     -0.011981
Mn	      9.84572      4.27641     -6.17319        -0.024269     -0.030152      0.003734
Mn	     11.78447      6.36363    -10.43413        -0.015634      0.004337     -0.037715
O	      3.90257     -0.34087     -2.04308        -0.055233     -0.022885     -0.027233
O	      5.89044      1.86478     -6.27626        -0.021508     -0.031486      0.010978
O	      7.80490      3.86095    -10.31148        -0.059327     -0.042509     -0.013644
O	      7.86783     -2.61023     -4.09343        -0.052893     -0.010482     -0.040449
O	      9.83492     -0.35574     -8.36583        -0.050263     -0.019872     -0.008171
O	     11.77219      1.65649    -12.42745        -0.074570     -0.022976     -0.020839
O	      5.86415      4.03174      0.08883        -0.009911     -0.027727     -0.021262
O	      7.86175      6.28389     -4.15678        -0.024989     -0.008965      0.005298
O	      9.79888      8.27139     -8.18540        -0.055828     -0.016508     -0.021163
O	      9.78604      1.84153     -2.06158        -0.045267     -0.009622     -0.025804
O	     11.78836      4.06297     -6.27880        -0.013154     -0.009104     -0.009942
O	     13.75553      6.04678    -10.37480        -0.061444      0.010878     -0.013300
O	      5.92771      1.95175     -1.92066         0.041194      0.026768      0.024079
O	      7.90231      4.09483     -6.07046         0.066912      0.055270      0.026436
O	      9.88478      6.18515    -10.20358         0.055931      0.048513      0.032214
O	      9.88598     -0.32646     -4.02313         0.031899      0.019119      0.035452
O	     11.85123      1.90366     -8.19172         0.044047      0.043501      0.026838
O	     13.77977      3.95625    -12.32229         0.036539      0.044064      0.017689
O	      7.90232      6.29843      0.20835         0.029649      0.001814      0.036841
O	      9.80165      8.37607     -3.92314         0.002730     -0.003232      0.044159
O	     11.76969     10.47166     -8.06697         0.015787      0.042448      0.038414
O	     11.82247      4.07708     -1.89119         0.045045      0.014705      0.037036
O	     13.75666      6.16843     -6.06525        -0.001519     -0.011200      0.022769
O	     15.71672      8.19435    -10.18715         0.041181      0.012066     -0.001672
O	      3.81852      2.21987     -4.28089        -0.043682     -0.067710     -0.058369
O	      5.85673      4.30976     -8.41822         0.010466     -0.041694     -0.024886
O	      7.73679      6.51469    -12.58602        -0.044030     -0.019958     -0.033338
O	      7.78025      0.06709     -6.38012        -0.088390     -0.081303     -0.034018
O	      9.76337      2.10671    -10.52944        -0.028566     -0.036747     -0.026863
O	     11.66467      4.36710    -14.67373        -0.036556     -0.023692     -0.018061
O	      5.81036      6.68719     -2.12146        -0.009110      0.023364     -0.021238
O	      7.87411      8.75917     -6.26255         0.061314      0.007154     -0.024993
O	      9.67846     10.96280    -10.42725        -0.046691     -0.019422     -0.005376
O	      9.76795      4.46991     -4.24625        -0.034768     -0.007311     -0.041650
O	     11.76916      6.51223     -8.41206         0.016449     -0.033252     -0.028727
O	     13.62731      8.67716    -12.53999        -0.027875     -0.009091     -0.019368
O	      3.90061      2.43240     -0.00162         0.071967      0.016788      0.023580
O	      5.92772      4.57379     -4.14127         0.102713      0.050893      0.001434
O	      7.83413      6.59420     -8.21429         0.038480      0.031094      0.000843
O	      7.81180      0.22708     -2.00455         0.021598      0.019674      0.005133
O	      9.83567      2.34736     -6.28196         0.072583      0.063424      0.009938
O	     11.71705      4.35960    -10.42268        -0.053150      0.062729      0.002570
O	      5.81823      6.79557      2.12648         0.051286      0.022009      0.026132
O	      7.81574      8.88190     -2.03753         0.036967     -0.002895      0.000153
O	      9.80315     10.88648     -6.14334         0.027520      0.004540      0.015445
O	      9.76082      4.56969      0.00379         0.022858      0.028226      0.033527
O	     11.75594      6.67286     -4.15841         0.026989      0.031371     -0.004424
O	     13.72051      8.69733     -8.27833         0.009867      0.026258      0.013027
O	      2.00095      1.88792     -2.13500        -0.009232     -0.025964     -0.067622
O	      3.94976      4.03774     -6.33236        -0.015597     -0.029332     -0.045197
O	      5.88912      6.01350    -10.51237         0.009839     -0.066807     -0.072513
O	      5.97532     -0.33378     -4.27056        -0.002925     -0.011827     -0.087565
O	      7.89888      1.84141     -8.44796        -0.013729     -0.032728     -0.045876
O	      9.93482      3.85382    -12.62762         0.003328     -0.050892     -0.057034
O	      3.94020      6.27247     -0.01766         0.005029     -0.017901     -0.075926
O	      5.88633      8.44363     -4.20663        -0.021149     -0.054479      0.005287
O	      7.88231     10.48921     -8.34472         0.001362     -0.018347     -0.044737
O	      7.88640      4.06597     -2.12945        -0.001360     -0.032415     -0.083823
O	      9.84076      6.21972     -6.32054        -0.017709     -0.049153     -0.023439
O	     11.90465      8.24032    -10.47451        -0.008404     -0.059895     -0.078354
O	      3.86288      4.62708     -1.85053        -0.019245      0.058798      0.096650
O	      5.83516      6.55310     -6.02792         0.008950     -0.016094      0.036233
O	      7.78125      8.79999    -10.22947         0.001176      0.045393      0.034973
O	      7.78385      2.40706     -3.97604         0.000362      0.054938      0.076408
O	      9.76273      4.36988     -8.15963         0.010313     -0.001587      0.043512
O	     11.79854      6.49062    -12.32534        -0.001284      0.011233      0.057215
O	      5.77872      8.94700      0.26539         0.006140      0.054056      0.050288
O	      7.79390     10.91171     -3.92707        -0.000456     -0.001792      0.049161
O	      9.72114     13.03777     -8.10288         0.017579      0.008390      0.059967
O	      9.77370      6.71864     -1.83873        -0.004340      0.062262      0.041675
O	     11.74636      8.71866     -6.02822        -0.006209      0.040305      0.038279
O	     13.67214     10.85470    -10.21969         0.008849      0.012272      0.052523
