# total energy = -92.55881343 eV
 
CRYSTAL
PRIMVEC
0.000373 2.069442 2.068611 
6.138698 6.263607 -4.191552 
-4.111001 2.102187 -2.102199 
PRIMCOORD
16 1
Li	     -2.10173      4.13670     -2.06997        -0.012060     -0.008958      0.010339
Li	      2.17967      6.27685     -4.20749         0.020594      0.021776     -0.019461
Li	     -2.06747      2.12049     -0.05465        -0.009173      0.003676     -0.003849
Li	     -0.22747      4.07086      0.06297        -0.033102     -0.009608      0.012769
Mn	     -4.04807      4.18633     -0.04916         0.052572      0.029945     -0.024161
Mn	      0.00155      6.26354     -2.12471        -0.030943     -0.017861      0.019407
Ni	      2.02958      4.15920     -2.08892        -0.029982     -0.024590      0.021915
Ni	      4.08497      6.30708     -2.16503        -0.018885     -0.071187      0.063035
O	      4.19195      6.20736     -4.13470         0.034869      0.131633     -0.131370
O	      0.03008      6.20011     -4.13053         0.095753     -0.078012      0.078462
O	      2.01154      8.47313     -4.33131         0.106757     -0.000405     -0.005159
O	     -2.19882      4.16569     -0.02955        -0.069435      0.015748     -0.013043
O	     -0.00730      4.31656     -2.24636        -0.079286      0.032190     -0.030553
O	      1.98034      6.24122     -2.10252        -0.107916      0.090715     -0.091342
O	     -0.01535      1.97006      0.09845        -0.014484     -0.011189      0.008871
O	      2.21702      4.20701     -0.06758         0.094722     -0.103872      0.104141
