# total energy = -92.45884347 eV
 
CRYSTAL
PRIMVEC
1.982121 4.274919 1.968584 
4.024235 -2.141949 -2.020987 
-0.019573 4.428997 -4.228587 
PRIMCOORD
16 1
Li	      3.98232      2.40753     -2.19371         0.006160     -0.003925     -0.005325
Li	      3.98455      0.22054     -4.16604         0.025794      0.040993     -0.000105
Li	      2.01660      4.21472     -2.13484        -0.026750     -0.040083     -0.000878
Li	      4.00100      6.30257     -2.13838        -0.007495      0.003016      0.005821
Mn	      5.97063      6.54462     -4.25147         0.030724     -0.013118      0.028049
Mn	      2.01250      2.16591     -0.08053        -0.028434      0.008906     -0.031319
Ni	      3.99405      4.35666     -0.18997         0.029202     -0.018051      0.006869
Ni	      3.98931      4.35365     -4.14210        -0.030660      0.017306     -0.007269
O	      3.99161      4.35511     -2.16609         0.000898      0.000454      0.001790
O	      4.02141      2.31877     -4.34440        -0.003339     -0.129613     -0.038893
O	      4.00145      2.14065     -0.05168        -0.000106      0.000613      0.000792
O	      4.07798     -0.18128     -2.02642         0.107976     -0.041509     -0.080734
O	      1.96765      4.09038      0.00715        -0.106713     -0.053568      0.019718
O	      1.97987      2.11659     -1.95634         0.003073      0.131018      0.039611
O	      1.99126      6.76201     -2.31833         0.107772      0.054821     -0.019838
O	      1.92312      4.61676     -4.27426        -0.108103      0.042740      0.081710
