# total energy = -846.10716027 eV
 
CRYSTAL
PRIMVEC
3.905113 8.728815 4.270933 
7.889205 -4.442699 -4.227589 
5.886595 6.328534 -0.013965 
PRIMCOORD
124 1
Li	      5.93378      4.28855     -6.15825         0.015355     -0.027665      0.005811
Li	      9.88340      2.05126     -8.28457         0.005531     -0.024123      0.024330
Li	     11.88980      4.39026    -12.68423         0.005483      0.022389     -0.012602
Li	      7.88703      8.56608     -4.03933         0.001935     -0.023603      0.003545
Li	     11.82913      6.32100     -6.16210         0.005890     -0.000633      0.007582
Li	     13.91065      8.83781    -10.50956        -0.008301      0.015290     -0.000961
Li	      5.93359      2.04584     -8.27617         0.005742     -0.015347      0.016258
Li	      9.86908     -0.21659    -10.38436         0.001395     -0.003067      0.005848
Li	      7.83526      6.31154     -6.18366        -0.006210     -0.026104      0.000783
Li	      9.76647      8.41582    -10.38585         0.004748     -0.019306      0.012931
Li	     11.76194      4.02972     -8.30678        -0.003429      0.001861     -0.000848
Li	     13.78408      6.48084    -12.48513         0.000681      0.026419      0.005361
Li	      7.83943      3.97497     -8.27324        -0.004791      0.008471      0.021332
Li	     11.78432      1.75096    -10.35205        -0.005000     -0.012353      0.002816
Li	      9.80514      8.39017     -6.13923        -0.017326     -0.018162     -0.015973
Li	     13.74802      6.12849     -8.23756        -0.008152     -0.006910      0.000450
Mn	      7.84933      4.29404     -3.98730        -0.016152     -0.055334      0.008154
Mn	      9.77574      6.29869     -8.26287         0.002053     -0.018671     -0.004376
Mn	      5.81648      2.15227     -0.01790        -0.004537      0.021433     -0.022603
Mn	     11.77879      2.06238     -6.07561        -0.004259     -0.063717      0.021298
Mn	      5.84112      8.50360     -6.13978        -0.008212     -0.006946      0.006392
Mn	      9.77232     -0.09391     -2.11066         0.027888      0.016468     -0.019163
Mn	      5.87546     -0.14051     -6.14476         0.019715     -0.033183      0.018432
Mn	     11.76487     10.66250     -6.15329         0.015267      0.011722      0.001359
Mn	      7.76812      6.47704      2.14709         0.008910      0.046101     -0.019091
Mn	      1.91580      2.06834     -4.01018         0.029805     -0.032655      0.014023
Mn	      7.84010     12.87140     -4.00539         0.018272      0.017738      0.008902
Mn	     17.60505     10.56669    -12.37346         0.029691      0.038988     -0.013660
Mn	      1.88837      2.17118     -0.07517        -0.007018      0.003772      0.031827
Mn	      3.99292      4.13438     -3.77466         0.008445     -0.013478     -0.007838
Mn	      5.87159      6.41064     -8.52472         0.022616      0.037061      0.035320
Mn	      5.82241      0.03450     -2.27141        -0.020357     -0.008886      0.038810
Mn	      7.93074      1.94119     -5.91337         0.023666     -0.053141      0.005098
Mn	      9.73523      4.28755    -10.62486         0.009240      0.010952      0.025340
Mn	      3.89917      6.51085      2.17095         0.019175      0.024859      0.003847
Mn	      5.91717      8.57944     -1.73805        -0.008950      0.003688     -0.030469
Mn	      7.89032     10.71908     -6.24370        -0.020466     -0.007711      0.016472
Mn	      7.82598      4.39114     -0.06848        -0.002620      0.000578      0.020987
Mn	      9.86708      6.36593     -3.85999         0.008180     -0.008897     -0.033794
Mn	     11.78875      8.56242     -8.32525        -0.030859     -0.014575      0.001368
Mn	      5.88567      8.68750      2.15213        -0.012843     -0.004137      0.032330
Mn	      3.96774      2.07829     -6.19224         0.022362     -0.002284      0.031266
Mn	      9.82694     12.87399     -6.26710         0.014015      0.075450     -0.031759
Mn	      5.96518     -2.24113     -4.23528        -0.000946     -0.001972      0.012995
Mn	      7.92166     -0.12976     -8.32547         0.010036     -0.011427      0.019674
Mn	     13.79698     10.68625     -8.33169        -0.006644      0.044033     -0.010936
Mn	      3.93415      4.37105      0.02853        -0.009717      0.007098     -0.003580
Mn	      5.92060      6.48539     -4.03451        -0.028859     -0.013062     -0.018774
Mn	      7.85810      8.58049     -8.33471        -0.023190      0.010007     -0.032997
Mn	      7.91781      2.16290     -2.10341        -0.006766      0.013808     -0.026239
Mn	      9.86644      4.27131     -6.17016        -0.013097     -0.023443     -0.014677
Mn	     11.83710      6.37844    -10.41296        -0.035361      0.014779      0.001075
O	      3.90965     -0.33821     -2.03919        -0.061451     -0.018140     -0.010878
O	      5.89447      1.86399     -6.26862        -0.062627     -0.017910      0.005534
O	      7.82068      3.86576    -10.32991        -0.053947     -0.060802     -0.019190
O	      7.86021     -2.57027     -4.11531        -0.071561     -0.003626     -0.028252
O	      9.84101     -0.36494     -8.38680        -0.070531     -0.004083      0.011720
O	     11.81314      1.65332    -12.41506        -0.083822     -0.014629     -0.026601
O	      5.86915      4.04121      0.05287        -0.064194     -0.020156     -0.014530
O	      7.87937      6.28892     -4.15345        -0.029416     -0.006061      0.010330
O	      9.80361      8.27177     -8.26719        -0.022121      0.035586     -0.006464
O	      9.81844      1.80542     -2.02726        -0.080748     -0.018781     -0.019945
O	     11.81543      4.06380     -6.27981        -0.020154      0.013682      0.011499
O	     13.79127      6.05843    -10.36632        -0.020529      0.035299     -0.006152
O	      5.94422      1.96728     -1.92565         0.023204      0.032615      0.040439
O	      7.93177      4.12706     -6.06487         0.052037      0.055854      0.025570
O	      9.92974      6.25069    -10.19973         0.050904      0.047926     -0.000153
O	      9.88467     -0.31076     -4.02942         0.017581      0.029643      0.037088
O	     11.88111      1.90396     -8.17696         0.044926      0.070881      0.008174
O	     13.79710      3.93550    -12.31660         0.027831      0.055224      0.010429
O	      7.91324      6.30430      0.22194         0.013552      0.043580      0.023494
O	      9.82367      8.38044     -3.94151        -0.046209      0.003879      0.001622
O	     11.85729     10.47181     -8.08966         0.039824      0.033213      0.035672
O	     11.84903      4.01409     -1.88206         0.013978      0.035539      0.027382
O	     13.76586      6.15506     -6.05251        -0.011495      0.004333     -0.015536
O	     15.76225      8.20148    -10.19835         0.001992      0.017957      0.008829
O	      3.81794      2.22217     -4.28566        -0.042207     -0.094648     -0.051856
O	      5.85231      4.29635     -8.39659        -0.019974     -0.051304      0.004985
O	      7.73028      6.53705    -12.60407        -0.015959     -0.017451     -0.011128
O	      7.77115      0.03127     -6.41871        -0.042937     -0.108051     -0.036318
O	      9.79117      2.10425    -10.53690        -0.054870     -0.057402     -0.026007
O	     11.68847      4.37615    -14.68176        -0.016734     -0.036413     -0.021459
O	      5.83639      6.69193     -2.10859         0.001551     -0.037235     -0.038864
O	      7.88994      8.76098     -6.28488         0.044814      0.009040     -0.025067
O	      9.68762     10.85596    -10.44897        -0.027065     -0.015420     -0.010070
O	      9.78970      4.47589     -4.24555        -0.008739     -0.023829     -0.041721
O	     11.84159      6.58609     -8.39439         0.072325     -0.012861     -0.047350
O	     13.64333      8.67391    -12.52327        -0.022741     -0.036389     -0.014191
O	      3.89197      2.41312      0.11344         0.069369      0.013778     -0.010733
O	      5.94808      4.57309     -4.13041         0.091736      0.060940     -0.011307
O	      7.80856      6.59395     -8.21294        -0.053921      0.033608     -0.012784
O	      7.81003      0.22904     -2.01815         0.077481      0.021970      0.001754
O	      9.88170      2.35644     -6.25918         0.091984      0.050020      0.001463
O	     11.74996      4.39045    -10.40600        -0.039143      0.037803     -0.000885
O	      5.85475      6.77212      2.13186         0.068474      0.009778      0.026312
O	      7.83184      8.88311     -2.05206         0.008793      0.016325     -0.011014
O	      9.82744     10.87935     -6.04876         0.045916     -0.002077     -0.007471
O	      9.76983      4.58690      0.01323         0.066468      0.016136      0.019699
O	     11.77138      6.67215     -4.17396         0.023873     -0.007206     -0.012848
O	     13.78549      8.69615     -8.28527         0.020545      0.011231     -0.008605
O	      1.99435      1.87587     -2.15504        -0.005162     -0.007886     -0.098286
O	      3.96191      4.05202     -6.33520         0.000569     -0.002888     -0.044210
O	      5.90680      6.00414    -10.51022        -0.008268     -0.062507     -0.063668
O	      5.97465     -0.32052     -4.29202        -0.004812     -0.016930     -0.091572
O	      7.92754      1.83277     -8.46606        -0.022915     -0.018934     -0.071113
O	      9.97733      3.83879    -12.62214        -0.003724     -0.050183     -0.054043
O	      3.94644      6.26282      0.01565         0.009519     -0.014286     -0.074526
O	      5.90066      8.44622     -4.19762         0.006274      0.000592     -0.017588
O	      7.78088     10.46107     -8.34667         0.001879     -0.022767     -0.023046
O	      7.92792      4.06061     -2.12576        -0.007401     -0.006913     -0.083836
O	      9.85570      6.22206     -6.31862        -0.011957     -0.007278     -0.014723
O	     11.84233      8.27356    -10.45400         0.006194     -0.013873     -0.050407
O	      3.84590      4.63001     -1.84580         0.001014      0.046499      0.099051
O	      5.84310      6.56671     -6.01159         0.008296      0.001549      0.055762
O	      7.84314      8.75504    -10.21150         0.005724      0.010411      0.072002
O	      7.81325      2.41161     -3.96761         0.008654      0.045041      0.128495
O	      9.78782      4.35186     -8.16606         0.009674     -0.006979      0.060718
O	     11.82630      6.50375    -12.30955         0.007592      0.009422      0.059218
O	      5.78694      8.93383      0.26002         0.024154      0.020757      0.047769
O	      7.81123     10.93935     -3.91775         0.005982      0.034844      0.017961
O	      9.72930     13.09760     -8.11842         0.030611     -0.007504      0.076022
O	      9.77352      6.71992     -1.85077        -0.013220      0.005004      0.073546
O	     11.76994      8.72005     -6.07770        -0.007689      0.032138      0.036841
O	     13.71691     10.84623    -10.20584         0.010911     -0.020867      0.053338
