# total energy = -853.58826497 eV
 
CRYSTAL
PRIMVEC
3.984445 8.655108 4.218864 
8.018934 -4.417253 -4.133116 
5.909493 6.367226 -0.013226 
PRIMCOORD
125 1
Li	      8.05116      0.10079     -4.18853        -0.006898     -0.010609      0.017052
Li	      8.06042      8.67046     -4.19697         0.000166      0.001006      0.015761
Li	      9.97864     10.72793     -8.24424        -0.007384      0.003222     -0.001785
Li	      4.06657      0.04453     -4.08916         0.007256      0.043331      0.009650
Li	      5.97272      2.26173     -8.26411        -0.011070      0.028083      0.001988
Li	      7.93136      4.17852    -12.37057        -0.000406     -0.006658     -0.002433
Li	     11.99113      6.36703     -1.98892         0.007043      0.004161      0.002931
Li	     10.02600      0.11237    -10.26599        -0.003409      0.021217      0.008667
Li	     15.91195     10.58436    -10.23341        -0.008435     -0.025994     -0.007594
Li	      5.99060      4.39988     -1.99711         0.010894      0.047632      0.016545
Li	      7.88138      6.09164     -6.20005        -0.003900      0.000351     -0.017290
Li	      9.91748      8.52353    -10.26274        -0.004285     -0.038504     -0.001334
Li	      9.96951      2.07232     -4.08638         0.008845      0.019835      0.011117
Li	     11.92396      3.95693     -8.22070         0.014962     -0.009495     -0.000653
Li	      9.85034      6.19786    -12.25516         0.000665      0.004546      0.001438
Li	     11.91830      4.12658     -4.02380         0.016655     -0.000846     -0.007141
Li	     13.84714      6.25979     -8.05649         0.003542     -0.013788     -0.007323
Mn	      7.92061      4.18107     -4.02270        -0.018179     -0.013294      0.011872
Mn	      9.91050      6.36232     -8.14977        -0.000733     -0.036222      0.012933
Mn	     11.88908      8.45689    -12.28821         0.034061      0.026347     -0.039566
Mn	     11.91052      1.97952     -6.13061         0.059089     -0.015758     -0.017438
Mn	     13.90371      4.14501    -10.25675        -0.014950      0.016968     -0.017629
Mn	     15.84895      6.25605    -14.32396         0.010973      0.013006     -0.022603
Mn	      5.96547     -0.09430     -6.15642        -0.023928     -0.017254      0.000947
Mn	     11.87424     10.65147     -6.06179         0.040567     -0.020440      0.005008
Mn	      9.90285      4.14657    -14.40923         0.019500     -0.050731     -0.037182
Mn	     13.93570      6.34251     -4.03227         0.028918     -0.000369     -0.009671
Mn	     15.88768      8.44595     -8.13622         0.018863      0.046964     -0.007730
Mn	     17.87158     10.58143    -12.23782        -0.011859     -0.003575     -0.009075
Mn	      1.99502      2.15293      0.02505        -0.005807     -0.006219     -0.000318
Mn	      3.96988      4.25385     -4.09237         0.001611      0.001679      0.017688
Mn	      5.93701      6.37412     -8.23086        -0.018630      0.003755     -0.012467
Mn	      6.06709     -0.09725     -1.95514         0.009410      0.003013      0.001857
Mn	      7.96031      2.11879     -6.24435         0.011841      0.001137      0.011302
Mn	      9.94503      4.13302    -10.22181         0.007083     -0.001659     -0.002366
Mn	      3.98511      6.47133      2.12870        -0.005907      0.004075      0.001057
Mn	      5.99747      8.50611     -1.93669         0.001517     -0.021113      0.000937
Mn	      7.83426     10.81080     -6.23613        -0.008256      0.018365      0.016972
Mn	      7.98809      4.29211      0.05782         0.008307     -0.002212      0.006483
Mn	      9.95528      6.37222     -4.06155        -0.000894     -0.013192      0.001496
Mn	     11.93420      8.51449     -8.18184         0.008304      0.009940     -0.004317
Mn	      2.05438     -0.01685     -2.11745        -0.027317      0.018559     -0.001127
Mn	      4.02415      2.12074     -6.20765        -0.036450     -0.006137      0.018548
Mn	      5.96347      4.23364    -10.35898        -0.033239      0.048186      0.029090
Mn	      6.05454     -2.20306     -4.16092        -0.031516     -0.039053      0.018342
Mn	      8.01708     -0.10025     -8.31297         0.005533      0.007144     -0.028291
Mn	      9.97791      2.04371    -12.44030         0.011903      0.013584     -0.012304
Mn	      4.01920      4.31684     -0.00180         0.012436      0.013544      0.005673
Mn	      5.99455      6.42712     -4.12363        -0.037280     -0.036973      0.035122
Mn	      7.95315      8.56304     -8.22373        -0.048871     -0.002221     -0.006474
Mn	      8.02892      2.10295     -2.02887        -0.026125     -0.004880      0.042661
Mn	      9.99440      4.22682     -6.19948         0.011094      0.008425     -0.018417
Mn	     11.98985      6.35362    -10.32554        -0.007077     -0.001597      0.009909
O	      4.02262     -0.26845     -2.05095        -0.047954     -0.019219      0.004977
O	      5.97170      1.85493     -6.30305        -0.033904     -0.042089      0.003951
O	      7.89868      3.93133    -10.38046        -0.059704     -0.038695     -0.005586
O	      8.03793     -2.48554     -4.22070        -0.056457     -0.017251     -0.005051
O	      9.95968     -0.39102     -8.34192        -0.039088     -0.040929      0.003646
O	     11.91861      1.71327    -12.44436        -0.033466     -0.046219     -0.007687
O	      5.95097      4.02792     -0.03187        -0.023092     -0.036494      0.007768
O	      7.95052      6.15619     -4.14851        -0.022146     -0.023035     -0.025341
O	      9.94434      8.32970     -8.28395        -0.045756     -0.011781      0.008232
O	      9.98417      1.82822     -2.08024        -0.041996     -0.044079     -0.002789
O	     11.93864      3.93231     -6.12955        -0.065744     -0.038556     -0.006496
O	     13.91417      6.09620    -10.13257        -0.049476     -0.033776      0.001618
O	      6.10423      1.86074     -1.86241         0.032487      0.003151      0.052883
O	      8.03593      4.04979     -6.01063         0.023676     -0.017479      0.016131
O	     10.05559      6.14650    -10.17725         0.047567      0.092773      0.021498
O	     10.00964     -0.31021     -3.92222        -0.007920      0.023281      0.054436
O	     12.06020      1.86631     -8.06857         0.048312      0.051297      0.046412
O	     14.06973      3.95244    -12.18330         0.069481      0.046427      0.055745
O	      8.12766      6.31573      0.23743         0.032643      0.027608      0.041985
O	      9.98283      8.33884     -3.88208        -0.017252     -0.005144      0.035298
O	     11.91581     10.46866     -8.02381        -0.035853      0.003254      0.049024
O	     12.11616      4.00845     -1.94025         0.036860      0.029597      0.005581
O	     14.10048      6.12298     -6.02183         0.044320      0.061366      0.021874
O	     15.98766      8.31428    -10.10278         0.003719     -0.020268      0.025904
O	      3.87778      2.23908     -4.28520        -0.050607     -0.066575     -0.055778
O	      5.80815      4.34590     -8.40752        -0.045534     -0.047634     -0.055485
O	      7.91412      6.55966    -12.53607         0.021637     -0.014953     -0.042221
O	      7.91284      0.14165     -6.29051        -0.006521     -0.036155     -0.012848
O	      9.81109      2.16462    -10.45725        -0.070834     -0.032435     -0.026751
O	     11.84848      4.33318    -14.56243        -0.041965     -0.008167     -0.049651
O	      5.82648      6.52804     -2.15075        -0.046200     -0.055563     -0.041249
O	      7.83586      8.83442     -6.23879         0.008118      0.000849     -0.011423
O	      9.78691     10.88590    -10.32825        -0.035412     -0.042025     -0.002618
O	      9.94922      4.39722     -4.22796         0.019025     -0.004476     -0.033059
O	     11.91767      6.57320     -8.34949        -0.005615      0.000117     -0.038216
O	     13.78710      8.65728    -12.47371        -0.039567     -0.023165     -0.057482
O	      3.96873      2.36554      0.13191         0.058479      0.015327      0.017147
O	      5.98365      4.50409     -4.01873         0.043634      0.031623      0.001261
O	      7.98174      6.63108     -8.12134         0.057561      0.044183     -0.000626
O	      8.02479      0.15933     -2.13824         0.059497      0.024659      0.008355
O	      9.94965      2.29288     -6.09310         0.041779      0.030142      0.003325
O	     11.98472      4.40359    -10.17543         0.062183      0.055260     -0.004841
O	      6.01774      6.70514      2.22456         0.035438      0.033478     -0.002553
O	      8.03122      8.80823     -1.95436         0.097226      0.047975     -0.011840
O	      9.88150     10.94648     -6.14089         0.032804      0.024621     -0.002476
O	     10.02722      4.52251      0.15929         0.004197      0.045792     -0.012761
O	     11.97666      6.57541     -3.96781         0.036085      0.013402     -0.002256
O	     13.92330      8.72313     -8.08604         0.030895      0.007725      0.008344
O	      1.95322      1.88617     -2.19934        -0.005290     -0.042451     -0.040133
O	      3.91771      4.01269     -6.28847        -0.000811     -0.043262     -0.055263
O	      5.88829      6.13610    -10.38697         0.006290     -0.042836     -0.032364
O	      6.05835     -0.27522     -4.20741         0.005809     -0.024526     -0.052879
O	      7.89520      1.81182     -8.37475        -0.011422     -0.034635     -0.057516
O	      9.88510      3.99595    -12.46070        -0.009477     -0.002861     -0.078977
O	      3.90295      6.26372     -0.04590         0.007776     -0.016940     -0.056743
O	      5.99625      8.39805     -4.13095         0.015011     -0.029592     -0.065097
O	      8.00881     10.48388     -8.29194         0.009047     -0.042115     -0.061574
O	      7.92996      4.00050     -2.09856         0.014801     -0.044001     -0.045225
O	      9.90393      6.13731     -6.23230         0.000457     -0.033279     -0.045563
O	     11.88249      8.26106    -10.37586         0.014520     -0.034216     -0.022967
O	      3.98422      4.50173     -1.93337        -0.007270      0.037312      0.050042
O	      5.98809      6.65589     -6.05008        -0.000828      0.042487      0.043187
O	      7.94084      8.76698    -10.13649         0.001441      0.030174      0.047850
O	      8.02276      2.24536     -3.98259         0.004421      0.012022      0.047554
O	     10.00717      4.44699     -8.11708         0.009750      0.043730      0.068005
O	     11.80762      6.54044    -12.23405        -0.003884      0.038471      0.072325
O	      5.95165      8.81121      0.15756        -0.001657      0.044376      0.062713
O	      7.89861     10.89716     -3.94963        -0.002074      0.014334      0.047485
O	      9.95675     13.05450     -8.08409        -0.003571      0.012463      0.062742
O	     10.04209      6.65156     -1.86186         0.000064      0.041301      0.040119
O	     11.98368      8.74726     -6.00886        -0.015704      0.047812      0.017087
O	     13.96358     10.91060    -10.14558        -0.021190      0.049203      0.036361
