# total energy = -858.80044798 eV
 
CRYSTAL
PRIMVEC
4.030893 8.644301 4.175568 
8.067414 -4.378449 -4.113180 
5.985397 6.395931 -0.013335 
PRIMCOORD
126 1
Li	      4.10477      2.19223     -2.12213        -0.000171     -0.011260      0.002653
Li	      6.08448      4.31189     -6.18131        -0.013837     -0.018946      0.000656
Li	     14.13790      8.59356    -10.29344         0.001721      0.001546      0.012211
Li	      8.03308      8.60075      0.06541         0.000342      0.020136      0.008335
Li	      6.00515      2.09657     -8.20613         0.002876     -0.005172      0.005341
Li	      8.01965      4.33994    -12.31208         0.005754      0.013792      0.010215
Li	     12.05218      6.25447     -1.96624        -0.000230     -0.002315      0.006378
Li	     13.98517      8.35510     -6.15620        -0.005418     -0.034543     -0.008634
Li	     12.03488      2.05903    -14.37293         0.002920      0.024437      0.007357
Li	      6.01406      4.23697     -2.06285        -0.007829     -0.018920     -0.011448
Li	      8.04895      6.38308     -6.13701        -0.006616     -0.021430     -0.013352
Li	     10.15570      2.39770     -4.01854        -0.002423     -0.008381     -0.003699
Li	     12.02510      4.02755     -8.23702        -0.000085      0.001609     -0.004129
Li	     14.07314      6.39628    -12.31299         0.013104      0.017719      0.000202
Li	      9.95641     -0.17770     -5.99686         0.009353      0.016684     -0.026070
Li	     13.98413      4.13678    -14.32224        -0.004696      0.015748     -0.001301
Li	      7.99632      6.43571     -1.94563        -0.002409      0.013510      0.004520
Li	      9.98540      8.43233     -6.05350        -0.000538      0.013191     -0.007563
Mn	      8.03128      4.27537     -4.03571        -0.000114     -0.031364     -0.010393
Mn	     10.00012      6.38662     -8.19116         0.025658      0.001484     -0.040234
Mn	     11.99677      8.53350    -12.24106        -0.019004     -0.007233     -0.016019
Mn	     12.06327      2.07787     -6.06929        -0.010624      0.005181     -0.016181
Mn	     14.03396      4.20329    -10.20857        -0.002594      0.005414      0.003999
Mn	     16.04537      6.33914    -14.32652         0.035414      0.004692     -0.014578
Mn	      6.00285     -0.05910     -6.10298         0.008561     -0.007281      0.016871
Mn	     12.00863     10.68087     -6.06474         0.020378      0.030569     -0.005985
Mn	     13.98895     12.81020    -10.15955        -0.009381      0.016466      0.008964
Mn	     14.03814      6.36990     -4.01715         0.013350     -0.010601     -0.010302
Mn	     16.03520      8.51181     -8.09700         0.004621     -0.028796      0.011601
Mn	     18.02307     10.61593    -12.23880         0.032369     -0.025161     -0.022218
Mn	      2.12010      2.04437      0.14548        -0.002292     -0.016194     -0.008114
Mn	      3.96048      4.36591     -4.14673        -0.000260     -0.003988      0.002806
Mn	      6.00493      6.40823     -8.20195        -0.000447     -0.002862      0.001166
Mn	      6.04759     -0.02971     -2.04165        -0.006234     -0.005699     -0.001351
Mn	      8.06406      2.11000     -6.14581         0.010101      0.006863      0.006048
Mn	     10.03633      4.20305    -10.26484        -0.006446      0.008799     -0.002275
Mn	      4.02643      6.48228      2.10944         0.014129     -0.001293      0.004582
Mn	      5.97867      8.66446     -2.03256         0.007195     -0.004352     -0.001586
Mn	      8.01575     10.72123     -6.11724         0.009382      0.000305      0.003501
Mn	      8.05683      4.28943      0.03791        -0.005317     -0.000768      0.000793
Mn	     10.11733      6.36800     -4.05600        -0.007364      0.012784     -0.003869
Mn	     11.98239      8.57493     -8.25847         0.001968      0.008737     -0.000633
Mn	      6.07070      8.63286      2.07759        -0.011812     -0.038687      0.008199
Mn	      4.04367      2.09552     -6.18186        -0.023188      0.006094      0.024089
Mn	     10.06627     12.88112     -6.15449         0.005232     -0.015877      0.014835
Mn	      6.08676     -2.20830     -4.13615        -0.006034      0.018156      0.008757
Mn	     12.09087      8.55608     -4.07805         0.025706      0.010494      0.015018
Mn	     14.08246     10.69607     -8.17871        -0.023293      0.030006      0.032927
Mn	      4.09671      4.32309      0.03790        -0.024767      0.001436      0.000126
Mn	      6.07946      6.49557     -4.10607        -0.058400      0.022639      0.018289
Mn	      8.07734      8.57437     -8.26885        -0.002525      0.024197      0.002319
Mn	      8.11941      2.15126     -2.07652         0.005661     -0.006570     -0.015129
Mn	     10.10444      4.29255     -6.20696         0.018949     -0.020414      0.002729
Mn	     12.06812      6.39665    -10.29903        -0.014011     -0.001871      0.003307
O	      3.99432     -0.25982     -2.12775        -0.068657     -0.007205     -0.008229
O	      5.98199      1.89742     -6.22369        -0.052466     -0.016521      0.001907
O	      7.97083      3.95951    -10.34746         0.017711     -0.034010      0.003584
O	      8.02997     -2.47616     -4.08507        -0.051202     -0.043406     -0.013368
O	      9.97465     -0.31813     -8.21915        -0.087760     -0.048082     -0.002883
O	     12.01375      1.79541    -12.38723        -0.034969     -0.024445     -0.000960
O	      6.04106      4.07369     -0.05021        -0.011789     -0.033586      0.000846
O	      8.07652      6.21961     -4.02923        -0.037131     -0.023915     -0.017562
O	      9.99481      8.32215     -8.08450        -0.062011     -0.033245     -0.015642
O	     10.05845      1.87413     -2.10189        -0.021272     -0.019516      0.001064
O	     12.03086      3.99979     -6.19813        -0.038826     -0.022797     -0.020749
O	     14.08475      6.14821    -10.33789        -0.048793      0.000424     -0.000854
O	      6.10108      1.97807     -1.87960         0.000466      0.039299      0.032967
O	      8.09083      4.13966     -5.98760        -0.002028      0.080077      0.041227
O	     10.16317      6.19560    -10.12463         0.021127      0.020945      0.039645
O	     10.23578     -0.30994     -3.98529         0.037746      0.077821      0.026366
O	     12.23844      1.98068     -8.04556         0.052097      0.082350      0.027825
O	     14.18244      3.97461    -12.25894         0.027078      0.023170     -0.016166
O	      8.15523      6.23631      0.12264         0.006724     -0.008805     -0.007409
O	     10.14889      8.33162     -3.98519         0.016363      0.033806      0.004040
O	     12.13895     10.50152     -8.03960         0.050373      0.029264      0.043014
O	     12.17408      4.09674     -1.84953         0.006349      0.032517      0.047278
O	     14.18545      6.27223     -5.95101         0.018987      0.038651      0.026185
O	     16.09196      8.29539    -10.05317        -0.022591      0.013489      0.031467
O	      3.86922      2.27894     -4.17583        -0.034886     -0.068805     -0.029747
O	      5.88064      4.45945     -8.24162        -0.031985     -0.020227      0.017228
O	      7.87091      6.49604    -12.45369        -0.056731     -0.074404     -0.030847
O	      8.00026      0.08433     -6.31433         0.008738     -0.044480     -0.046163
O	      9.89437      2.19510    -10.41417        -0.006799     -0.039848     -0.036441
O	     11.99729      4.36058    -14.52923         0.025783     -0.063900     -0.038117
O	      6.02193      6.63803     -2.17054         0.008883     -0.031640     -0.049122
O	      7.99767      8.77744     -6.28888         0.003381     -0.022638     -0.030221
O	      9.92588     10.92902    -10.37123        -0.029639     -0.047303     -0.027432
O	      9.99670      4.44400     -4.22341        -0.023036     -0.005292     -0.012936
O	     11.92773      6.62687     -8.34471        -0.044480     -0.015674     -0.038996
O	     13.96651      8.73612    -12.36221         0.006488     -0.007263      0.004465
O	      4.11753      2.37841     -0.07473         0.070528      0.038480      0.007872
O	      6.08867      4.54128     -4.10900         0.072232      0.028854      0.010581
O	      8.04730      6.64056     -8.13924         0.035661      0.024052     -0.001138
O	      8.09855      0.19448     -1.96453         0.072413      0.006849      0.000620
O	     10.10951      2.32717     -6.06915         0.029967      0.021999      0.015094
O	     12.10017      4.46514    -10.18854         0.010993      0.021795      0.005132
O	      6.05947      6.72003      2.17332         0.005002      0.019613      0.019558
O	      8.07762      8.79178     -1.91354         0.007573      0.018042      0.011872
O	     10.01574     10.92850     -6.01208         0.055805      0.010039      0.005513
O	     10.08148      4.50657      0.13494         0.022209      0.019487      0.008667
O	     12.09008      6.61289     -3.93731         0.034280      0.038798     -0.012406
O	     14.07416      8.74704     -8.16479         0.030768      0.030986      0.009421
O	      2.03329      1.96737     -2.11069        -0.010815     -0.028940     -0.041445
O	      4.01479      4.04011     -6.21864        -0.002183     -0.043394     -0.084189
O	      5.92522      6.17979    -10.35083        -0.010899      0.007157     -0.046940
O	      5.99698     -0.28444     -4.17541        -0.006811     -0.048647     -0.032598
O	      7.96492      1.82224     -8.31250        -0.000692     -0.025928     -0.058711
O	      9.96715      3.95386    -12.39876         0.004499     -0.043977     -0.010562
O	      3.99037      6.23139     -0.02574        -0.000276     -0.040016     -0.035865
O	      5.98339      8.39559     -4.15385        -0.007605     -0.055011     -0.043387
O	      7.97228     10.48679     -8.29961         0.000656     -0.040020     -0.031429
O	      8.00034      4.10365     -2.10587        -0.000627     -0.004784     -0.037708
O	     10.00368      6.23373     -6.23270        -0.006941      0.009751     -0.040032
O	     12.17162      8.31204    -10.32600         0.008222     -0.029590     -0.058522
O	      3.99052      4.47673     -1.95773         0.010791      0.004037      0.075918
O	      6.09611      6.63215     -6.04613         0.001054      0.005247      0.036869
O	      7.89306      8.78431    -10.16709        -0.003266      0.047941      0.066107
O	      8.12327      2.37087     -4.00433         0.004297      0.047894      0.055370
O	     10.09656      4.48029     -8.13224         0.002447      0.045154      0.038306
O	     12.09579      6.61866    -12.21732         0.010141      0.028942      0.039639
O	      6.05921      8.85891      0.13904         0.001511      0.037184      0.050625
O	      8.06593     10.97774     -3.92212        -0.001324      0.027971      0.041199
O	     10.04667     13.09413     -8.10631         0.001447      0.045146      0.007326
O	     10.04395      6.64905     -1.89513         0.005286      0.020346      0.031279
O	     12.00963      8.74934     -6.03477         0.004540      0.034267      0.034513
O	     14.09955     10.85771    -10.12389         0.011491      0.002757      0.054452
