# total energy = -867.45962322 eV
 
CRYSTAL
PRIMVEC
4.035223 8.699678 4.173139 
8.060857 -4.356386 -4.182992 
6.095704 6.405935 -0.014055 
PRIMCOORD
128 1
Li	      4.10996      2.24032     -2.26568        -0.003103     -0.017819      0.010923
Li	      8.16715      6.28568    -10.27882        -0.011971     -0.027396     -0.014746
Li	      8.14222      0.07144     -4.35771        -0.007402     -0.031666      0.015939
Li	     12.19319      4.10745    -12.36441        -0.000238     -0.025464     -0.027533
Li	      6.10866      6.79762     -0.04808        -0.006690     -0.037265     -0.017166
Li	     10.15329     10.70533     -8.17878         0.008642      0.016510     -0.005133
Li	     10.13789      4.61845     -2.14029        -0.004099     -0.033780     -0.014705
Li	     14.18193      8.52878    -10.26491         0.015667      0.017047     -0.016240
Li	      8.10374      4.22161    -12.30289        -0.003641      0.046312     -0.002550
Li	     12.13435      2.06110    -14.39383         0.003011      0.021457      0.003669
Li	      6.08251      4.20400     -2.22748         0.007940     -0.022023      0.003449
Li	     10.13445      8.52597    -10.30306        -0.005263     -0.001932     -0.023898
Li	     10.11400      2.03101     -4.31875         0.005467     -0.025306      0.004920
Li	     14.15939      6.35245    -12.40035         0.008777     -0.009521     -0.010542
Li	     10.11234      6.24258    -12.31560        -0.009762      0.010992      0.003884
Li	     14.14359      4.06225    -14.40556        -0.009257      0.016637      0.000534
Li	      8.00270      6.72272     -2.02256        -0.006942     -0.006804     -0.001636
Li	     12.09181     10.57240    -10.22181        -0.008710      0.023356      0.004683
Li	     12.03292      4.54253     -4.11354        -0.003501     -0.002818     -0.002959
Li	     16.11994      8.39109    -12.32061        -0.003398      0.035004      0.017254
Mn	      8.06099      4.32733     -4.21462        -0.010905     -0.005587      0.012575
Mn	     10.12053      6.50220     -8.15348         0.004073     -0.054049      0.009747
Mn	     12.15309      8.55359    -12.35101        -0.018136     -0.008422     -0.029185
Mn	     12.08969      2.14646     -6.30656         0.008556      0.004694      0.011045
Mn	     14.15211      4.32712    -10.24420         0.017929     -0.055829      0.005903
Mn	      8.12339     10.73193    -10.26084        -0.027225      0.005732     -0.029383
Mn	      9.99458      8.64538     -2.00337        -0.004547      0.030523      0.007280
Mn	      8.03599      2.05981    -10.15794         0.052813     -0.011754     -0.002408
Mn	     14.11709     12.83696    -10.21397         0.012509      0.005217      0.029756
Mn	     14.02416      6.46873     -4.09517         0.008631      0.026976      0.005812
Mn	     12.07193     -0.11631    -12.24928         0.040269     -0.020510     -0.001522
Mn	     10.08685     15.01655     -8.12450         0.010256      0.002168      0.029866
Mn	      1.96884      2.16396     -0.10731        -0.013746      0.007899     -0.001054
Mn	      3.95366      4.40436     -4.23318        -0.000469      0.026446      0.016947
Mn	      6.19913      6.32033     -7.99393         0.019228     -0.036669     -0.028055
Mn	      5.99801     -0.01342     -2.20235        -0.008227      0.005156      0.014905
Mn	      7.98093      2.22951     -6.32546         0.004935      0.019050      0.026806
Mn	     10.22928      4.13602    -10.08376         0.019100     -0.023845     -0.024976
Mn	      4.02298      6.48632      2.06840         0.028818      0.016521      0.006867
Mn	      6.02674      8.76081     -2.16003        -0.008165      0.006786      0.034302
Mn	      8.14767     10.73017     -5.89401         0.027539     -0.029756     -0.013487
Mn	      8.05370      4.30668     -0.02258         0.022627      0.023400      0.009532
Mn	     10.05853      6.58274     -4.25201        -0.009835      0.007835      0.034521
Mn	     12.18110      8.54441     -7.98046         0.015307     -0.021949     -0.025798
Mn	      6.08102      8.67245      2.07284         0.022552     -0.007513      0.015076
Mn	      8.08801     10.80234     -1.99753         0.001844      0.014139      0.005165
Mn	      6.10169      4.23322    -10.23415        -0.009639     -0.002831      0.019956
Mn	     10.11176      6.49333     -0.01917         0.016696     -0.003880      0.021910
Mn	      8.08257     -0.07410     -8.25985         0.001337      0.004101     -0.002862
Mn	     10.13276      2.05093    -12.32114        -0.000432      0.007691      0.003998
Mn	      4.07084      4.32202     -0.13355        -0.022763     -0.015715      0.001367
Mn	      6.14633      6.52898     -4.20137         0.010243      0.012640     -0.035908
Mn	      8.17139      8.65961     -8.19952        -0.039413     -0.043162     -0.021351
Mn	      8.09999      2.14562     -2.22708        -0.023171     -0.022156      0.007821
Mn	     10.17553      4.34996     -6.29345         0.012574      0.002398     -0.021851
Mn	     12.19985      6.47867    -10.29204        -0.029968     -0.034570     -0.014163
O	      3.96140     -0.30056     -2.00340        -0.069283      0.011451      0.016969
O	      5.91985      1.82481     -6.13469        -0.071099     -0.041091      0.017578
O	      8.03194      4.05518    -10.30441        -0.082804     -0.017672      0.013433
O	      7.99250     -2.47886     -4.09427        -0.069901      0.015840      0.011010
O	      9.95066     -0.35148     -8.22737        -0.075196     -0.044696      0.017116
O	     12.06513      1.87998    -12.39211        -0.092951     -0.028976      0.009571
O	      6.05742      4.10693     -0.02240         0.034810     -0.058168     -0.007278
O	      8.09716      6.24783     -4.01470        -0.008097     -0.000066     -0.008849
O	     10.14622      8.48609     -8.29203        -0.030409     -0.008645      0.017741
O	     10.08715      1.92901     -2.11860         0.041419     -0.050699     -0.000522
O	     12.12590      4.06746     -6.10742        -0.008790      0.004422     -0.006421
O	     14.17346      6.31133    -10.38564        -0.024001     -0.015320      0.021475
O	      6.11713      2.04233     -1.94723        -0.016163      0.057312      0.075569
O	      8.24268      4.17395     -6.14294         0.035339      0.022669      0.014770
O	     10.24759      6.33316    -10.20705         0.037218      0.064412      0.015526
O	     10.15021     -0.13895     -4.03914        -0.024741      0.067748      0.070842
O	     12.27472      1.99271     -8.23515         0.029556      0.029003      0.011265
O	     14.27909      4.15929    -12.29913         0.037187      0.053545      0.018747
O	      8.07582      6.26679      0.12386         0.023994      0.015361     -0.046610
O	     10.13029      8.46071     -3.93209         0.021128      0.002534      0.022585
O	     12.15440     10.55629     -8.02743         0.007609     -0.006430      0.036525
O	     12.10781      4.09051     -1.96978         0.014017      0.012160     -0.043437
O	     14.16091      6.28334     -6.02485         0.018161     -0.001324      0.022150
O	     16.18426      8.38349    -10.11984         0.010800     -0.018203      0.042901
O	      3.84918      2.38366     -4.19911        -0.039374     -0.011020     -0.011956
O	      5.91575      4.37184     -8.31981        -0.062110     -0.090497     -0.032167
O	      8.13940      6.48442    -12.44560         0.054804     -0.028629     -0.045868
O	      7.87970      0.20741     -6.29003        -0.034624     -0.015492     -0.011337
O	      9.94244      2.18743    -10.40754        -0.060646     -0.080197     -0.032653
O	     12.16938      4.30343    -14.53661         0.053287     -0.028660     -0.050762
O	      6.04070      6.74274     -2.16717        -0.028252      0.001262     -0.016603
O	      8.04701      8.85590     -6.25636        -0.038472     -0.001846     -0.017013
O	     10.10122     10.89782    -10.26588         0.009261      0.010309      0.023158
O	     10.07163      4.56406     -4.25938        -0.026560     -0.001586     -0.013142
O	     12.07604      6.66971     -8.34913        -0.026051      0.014276     -0.014328
O	     14.13172      8.71795    -12.36186         0.003652      0.013175      0.040007
O	      4.10321      2.35949     -0.05697         0.053089      0.020864     -0.007269
O	      6.17542      4.59405     -4.14695         0.069702      0.024643     -0.014295
O	      8.21241      6.75501     -8.31806         0.099873      0.045575     -0.014028
O	      8.13331      0.18378     -2.15319         0.051760      0.012423      0.001221
O	     10.20343      2.41476     -6.23947         0.069684      0.025732     -0.011175
O	     12.24347      4.57445    -10.40942         0.094529      0.047000     -0.008992
O	      5.97144      6.66746      2.09191        -0.054181      0.037764     -0.022057
O	      8.01415      8.85038     -1.98067         0.020502      0.004049     -0.010947
O	     10.10161     11.02369     -6.18528         0.008960      0.008628      0.015057
O	     10.00097      4.48944     -0.00166        -0.043773      0.039955     -0.019483
O	     12.04501      6.67301     -4.06993         0.019940      0.005876     -0.013330
O	     14.13523      8.84146     -8.27022         0.008072      0.013855      0.005327
O	      2.14850      1.86305     -2.14152        -0.030692     -0.037910     -0.092553
O	      4.09404      4.02400     -6.19096        -0.000828     -0.027512     -0.035316
O	      6.11471      6.20672    -10.32146        -0.023193     -0.052717     -0.001510
O	      6.17892     -0.31602     -4.23422        -0.028280     -0.035951     -0.092784
O	      8.11426      1.84729     -8.28250         0.012828     -0.028442     -0.038774
O	     10.14366      4.02439    -12.40991        -0.021981     -0.041529     -0.005825
O	      4.08063      6.25335     -0.14953         0.017086      0.024498     -0.060265
O	      6.12771      8.43796     -4.19797         0.005594     -0.034554     -0.089634
O	      8.13218     10.62522     -8.31358        -0.014957     -0.027007     -0.023935
O	      8.11144      4.07604     -2.24112         0.017068      0.027125     -0.059370
O	     10.16059      6.25795     -6.29050         0.000340     -0.024974     -0.082533
O	     12.16351      8.44379    -10.40263        -0.015571     -0.018365     -0.035545
O	      4.12567      4.53111     -2.21868         0.011880      0.062775     -0.043584
O	      6.09990      6.79302     -6.05650         0.001143      0.051476      0.116657
O	      8.10675      8.79368    -10.21181         0.011481      0.025049      0.086417
O	      8.15490      2.35495     -4.30994         0.015353      0.059420     -0.049411
O	     10.12085      4.61150     -8.14681         0.019676      0.054471      0.092037
O	     12.13407      6.61462    -12.30308         0.017754      0.031748      0.081403
O	      5.90946      8.83241      0.17101         0.011553      0.003965      0.013978
O	      8.00265     11.06429     -3.88679        -0.013022      0.040348      0.068882
O	     10.06767     13.06244     -8.04791        -0.014174     -0.003472      0.055848
O	      9.94007      6.65286     -1.92052         0.011939      0.008203      0.014891
O	     12.02719      8.88417     -5.97524        -0.008022      0.039709      0.063853
O	     14.10010     10.88249    -10.13587        -0.020575     -0.005673      0.049753
