# total energy = -867.22456813 eV
 
CRYSTAL
PRIMVEC
3.991664 8.756507 4.257783 
7.993580 -4.413595 -4.230868 
6.020292 6.354453 -0.014042 
PRIMCOORD
128 1
Li	      4.04706      2.30376     -2.22679         0.005447      0.008101     -0.000178
Li	      8.07357      6.17558    -10.25615         0.006559     -0.016745      0.014622
Li	      8.04662      0.30561     -4.29205         0.004795      0.013841      0.000606
Li	     12.05516      4.10249    -12.42345         0.006909     -0.027023      0.008269
Li	      6.06058      6.87557     -0.02694        -0.003002      0.010492      0.003931
Li	     10.03714     10.71551     -8.18716         0.011206      0.002478     -0.015946
Li	     10.05628      4.47935     -2.20627         0.000610      0.013286     -0.014873
Li	     14.06155      8.34935    -10.27306         0.001651      0.001928     -0.007904
Li	     12.00509     12.88919     -8.16505         0.009856      0.009593      0.016546
Li	     11.96698      6.42422     -2.06362        -0.000881      0.002531      0.023146
Li	     16.01395     10.65059    -10.25633         0.004004     -0.002428      0.004424
Li	      5.97928      4.19981     -2.09681        -0.013687     -0.000430      0.003756
Li	     10.01315      8.48955    -10.30426         0.011894     -0.020334     -0.002379
Li	     14.00876      6.25078    -12.42527         0.002458     -0.008317     -0.006164
Li	     10.01050      6.11381    -12.34896         0.001763     -0.005793      0.011898
Li	      9.92808      0.15989     -6.25544         0.007482      0.023816      0.001524
Li	     13.98588      3.89594    -14.46703        -0.004250     -0.017146      0.010853
Li	      7.94714      6.72550     -2.01057         0.000174     -0.004041      0.008004
Li	     11.97428     10.49545    -10.24386         0.000969     -0.000088     -0.006055
Li	     15.99286      8.27925    -12.34481        -0.004112     -0.008646     -0.008323
Mn	      7.95199      4.31034     -4.14404         0.027857      0.008819     -0.040841
Mn	     10.00196      6.41868     -8.15246         0.007667     -0.061381      0.016166
Mn	     12.00784      8.44922    -12.36917         0.003964      0.010113     -0.018377
Mn	     11.93518      2.09676     -6.22540        -0.010028      0.012361      0.008189
Mn	     13.98707      4.20680    -10.27822         0.008655     -0.039941      0.007434
Mn	      9.94737     -0.07692     -2.12002        -0.008098      0.019228     -0.008494
Mn	      9.92918      8.67177     -1.98450         0.019033      0.038315      0.004534
Mn	      7.97318      2.00002    -10.29353         0.026409     -0.024979      0.022440
Mn	     13.97049     12.85989    -10.25750         0.003674      0.008036      0.015877
Mn	     13.91906      6.45149     -4.12666         0.003783      0.004232      0.011809
Mn	      3.97592      4.18965     -8.16556         0.033702     -0.050094      0.009651
Mn	     10.00272     15.01925     -8.10818        -0.003520     -0.021936      0.002967
Mn	      2.00180      2.13111      0.01229        -0.009804     -0.004805      0.004658
Mn	      3.95920      4.38898     -4.28731        -0.017005      0.018370      0.029663
Mn	      6.09863      6.25274     -7.95325         0.019022     -0.026854     -0.001371
Mn	      5.94243      0.02292     -2.25952        -0.002406      0.004163      0.008203
Mn	      7.90429      2.25421     -6.40635         0.000933      0.018664      0.006228
Mn	     10.10030      4.05677    -10.06261         0.018380     -0.026088      0.010960
Mn	      3.94150      6.60906      1.98232        -0.001963      0.002639      0.003698
Mn	      5.93120      8.78061     -2.11255         0.019054     -0.011175      0.035488
Mn	      8.08596     10.65699     -5.84506        -0.011216      0.011458     -0.015478
Mn	      8.00007      4.30233      0.02533        -0.005359      0.003109      0.004133
Mn	      9.95303      6.56160     -4.26882        -0.014218      0.001117      0.023072
Mn	     12.05413      8.49972     -8.01852        -0.013787     -0.000845     -0.032516
Mn	      2.03728      0.00598     -2.15468        -0.011126     -0.013129      0.006672
Mn	      4.04598      2.07787     -6.24153         0.000206      0.025380     -0.029289
Mn	      6.04497      4.18390    -10.32593         0.000602     -0.019816      0.025339
Mn	      6.02210     -2.21641     -4.24165         0.004380      0.016361      0.010310
Mn	     12.00184      8.67393     -4.12488        -0.007013      0.034086      0.002657
Mn	     10.05107      1.99065    -12.44862        -0.004375     -0.011640      0.011912
Mn	      4.01945      4.37492     -0.01363        -0.002563      0.044749     -0.002669
Mn	      6.02546      6.52916     -4.13399        -0.009541      0.031489     -0.023239
Mn	      8.05803      8.59291     -8.20037        -0.012235     -0.016105      0.013768
Mn	      8.03141      2.18203     -2.16346        -0.001628     -0.004460     -0.015115
Mn	     10.07324      4.30099     -6.22416        -0.015552      0.022158     -0.018426
Mn	     12.05890      6.39300    -10.31366         0.005200     -0.011903     -0.015129
O	      3.94941     -0.27900     -2.03357        -0.081483     -0.034932      0.011652
O	      5.92671      1.79680     -6.20413        -0.092613     -0.076448     -0.017364
O	      7.99382      4.00188    -10.40350        -0.069032     -0.028850     -0.005721
O	      8.00445     -2.52376     -4.19663        -0.020155     -0.020717      0.014408
O	      9.95840     -0.36370     -8.21389        -0.052820     -0.024667     -0.016096
O	     11.98692      1.78356    -12.51461        -0.081670     -0.049777     -0.000609
O	      6.02371      4.06156      0.03374         0.010725     -0.018867     -0.006267
O	      7.98233      6.24492     -3.96829        -0.058883     -0.034803     -0.017333
O	     10.03039      8.41381     -8.30951        -0.013841     -0.035191      0.008546
O	      9.94294      1.89324     -2.02986        -0.079199     -0.031441     -0.001884
O	     11.98890      3.99852     -6.16162        -0.026609     -0.044123     -0.021049
O	     14.02642      6.20251    -10.40242        -0.032035     -0.023034     -0.003651
O	      6.03259      2.05983     -1.91639         0.045909      0.063842      0.051728
O	      8.12825      4.19177     -6.03856         0.046706      0.071806      0.054591
O	     10.07100      6.21222    -10.19292         0.001243      0.064511      0.036010
O	      9.95481     -0.29562     -4.09777        -0.027945      0.016560      0.036971
O	     12.08682      1.89425     -8.19091         0.049995     -0.000738      0.020289
O	     14.09725      4.04139    -12.34155         0.048356      0.058685      0.024609
O	      7.97358      6.29561      0.15960        -0.008149      0.021251      0.031788
O	     10.06664      8.47473     -3.94194         0.028852      0.000801      0.027364
O	     12.02130     10.52766     -8.09540        -0.012345     -0.011101      0.019370
O	     12.02942      4.22551     -1.88866         0.040204      0.063032      0.040616
O	     14.04319      6.26408     -6.03247         0.009922     -0.001863      0.048253
O	     16.03461      8.34627    -10.19130        -0.012615      0.023525      0.032635
O	      3.86577      2.39698     -4.24100        -0.044900     -0.024284     -0.026861
O	      5.88341      4.32055     -8.41031        -0.077737     -0.070710     -0.049804
O	      8.04508      6.46153    -12.50502         0.001015     -0.024600     -0.034240
O	      7.90595      0.10943     -6.36941        -0.043356     -0.089470     -0.035566
O	      9.89759      2.14823    -10.53648        -0.055161     -0.071095     -0.068055
O	     11.98588      4.25103    -14.64405        -0.013866     -0.059305     -0.020288
O	      5.97804      6.77161     -2.12188         0.016309      0.029457     -0.033866
O	      7.93813      8.76124     -6.28324        -0.038066     -0.028377     -0.050287
O	      9.97677     10.83488    -10.41854        -0.027595     -0.051072     -0.017832
O	      9.88449      4.58146     -4.21982        -0.010269      0.004064      0.002624
O	     11.95256      6.60533     -8.37280        -0.029143      0.026623     -0.032573
O	     14.02320      8.63288    -12.49353        -0.013111     -0.021825     -0.021698
O	      4.00432      2.35464      0.00966         0.050231      0.009964     -0.000258
O	      5.98704      4.58669     -4.02202         0.038576      0.037340     -0.011968
O	      8.08498      6.68285     -8.29782         0.113013      0.058429     -0.000390
O	      7.99838      0.20085     -2.14338         0.059538      0.043253      0.002246
O	     10.01561      2.32246     -6.23479         0.036688      0.034292     -0.016263
O	     12.07317      4.47357    -10.43072         0.102525      0.047345      0.008987
O	      5.99676      6.77968      2.11704         0.046759      0.039494      0.004816
O	      7.97680      8.86856     -1.97210         0.016262      0.027113     -0.006266
O	     10.03288     11.02190     -6.18923         0.067358      0.045376     -0.014112
O	      9.98104      4.52620      0.03805         0.011964      0.024644      0.004509
O	     11.96038      6.73527     -4.00300         0.059672      0.037725     -0.003347
O	     13.99718      8.81964     -8.31908         0.040854      0.019509     -0.000320
O	      2.03812      1.93282     -2.15687         0.002163     -0.051395     -0.063952
O	      4.06552      3.99342     -6.29905        -0.008134     -0.061775     -0.071788
O	      6.05888      6.16437    -10.42286        -0.005553     -0.032963     -0.042950
O	      6.13458     -0.31188     -4.30891         0.000477     -0.042770     -0.074208
O	      8.03808      1.81142     -8.42297        -0.001898     -0.075299     -0.095985
O	     10.04076      3.97277    -12.57283         0.000056     -0.026509     -0.038980
O	      4.14784      6.27680     -0.06603         0.010853     -0.029642     -0.077305
O	      6.04221      8.42499     -4.17387        -0.003736     -0.055549     -0.081157
O	      8.04404     10.56397     -8.34265        -0.005069     -0.015371     -0.046491
O	      8.04056      4.10907     -2.15163        -0.015102     -0.056436     -0.058428
O	     10.09616      6.20839     -6.27850        -0.009479     -0.026720     -0.076554
O	     12.05117      8.36502    -10.42825        -0.009060     -0.018233     -0.052397
O	      3.95736      4.49732     -1.94459         0.012130      0.032112      0.009356
O	      5.96279      6.73247     -6.00256         0.004657      0.071498      0.119056
O	      7.97455      8.73554    -10.20354         0.002037      0.043017      0.055252
O	      7.94955      2.37226     -4.05917         0.008504      0.025639      0.052337
O	      9.97518      4.53095     -8.10106         0.000691      0.084830      0.088168
O	     11.98818      6.50228    -12.31454         0.007472      0.047616      0.033909
O	      5.94568      8.93321      0.21568         0.017687      0.021256      0.068016
O	      7.92752     11.06594     -3.86642        -0.007726      0.066134      0.082075
O	      9.98176     13.06710     -8.06830         0.000563      0.017126      0.034581
O	      9.95278      6.66330     -1.91340        -0.000480      0.027329      0.021125
O	     11.94715      8.86715     -6.00184        -0.007955      0.058094      0.090773
O	     13.96248     10.90713    -10.18357        -0.004101      0.041889      0.056862
