# total energy = -867.08181140 eV
 
CRYSTAL
PRIMVEC
3.944865 8.695568 4.223533 
8.021985 -4.428651 -4.218631 
5.985633 6.378159 -0.013802 
PRIMCOORD
128 1
Li	      4.00822      2.32947     -2.18173        -0.003801      0.017431      0.003315
Li	      8.02321      6.32403    -10.31422        -0.008553     -0.003468     -0.020130
Li	      8.01911      0.11446     -4.29140        -0.002862      0.018649      0.004757
Li	     12.03423      4.10831    -12.42348        -0.008891     -0.002862     -0.019525
Li	      6.09277      6.81721     -0.08752        -0.007769      0.002421     -0.002166
Li	     10.00746     10.63686     -8.22791        -0.016902     -0.014271     -0.010712
Li	     10.10345      4.60233     -2.19644        -0.008060      0.002686     -0.003243
Li	     14.01842      8.42132    -10.33726        -0.016884     -0.013235     -0.010640
Li	     11.94928     12.81809     -8.24743         0.007323     -0.020264      0.005710
Li	     15.96003     10.60298    -10.35669         0.007929     -0.020168      0.006499
Li	      6.03750      4.47674     -2.07535        -0.008788      0.025285      0.022166
Li	      9.96617      8.46984    -10.36991         0.012619     -0.014318     -0.005521
Li	     10.04825      2.26252     -4.18492        -0.008465      0.024638      0.023039
Li	     13.97711      6.25470    -12.47934         0.010995     -0.013861     -0.004887
Li	      5.89523      2.08310     -4.19055         0.005761     -0.015812      0.033350
Li	      9.95447      6.12316    -12.42952        -0.004431     -0.003749      0.010218
Li	      9.90605     -0.13105     -6.30005         0.006671     -0.015997      0.032829
Li	     13.96545      3.90842    -14.53827        -0.004755     -0.004107      0.009407
Li	     11.96170     10.44866    -10.33719         0.000257     -0.005647     -0.005388
Li	     15.97277      8.23392    -12.44662        -0.000613     -0.005329     -0.005319
Mn	      7.93102      4.25811     -4.18608         0.009890      0.016060      0.021807
Mn	      9.94198      6.37758     -8.19756         0.028006     -0.035170      0.006822
Mn	     11.93669      8.42216    -12.46659         0.000362     -0.016937     -0.019586
Mn	     11.94224      2.04398     -6.29546         0.007067      0.015573      0.021612
Mn	     13.95309      4.16339    -10.30675         0.027013     -0.035949      0.006872
Mn	      7.92575     10.63628    -10.35724         0.000046     -0.016449     -0.021075
Mn	      9.84728      8.58542     -2.05581        -0.000243     -0.005051      0.004591
Mn	      7.96753      2.04132    -10.32393         0.023538     -0.048767      0.003333
Mn	     13.91600     12.79198    -10.33759         0.007906      0.008251     -0.024670
Mn	     13.85804      6.37138     -4.16519         0.003958     -0.004949      0.004320
Mn	     11.97852     -0.17327    -12.43331         0.023044     -0.048675      0.005205
Mn	      9.90485     15.00596     -8.22816         0.008745      0.007506     -0.025906
Mn	      1.93487      2.15249     -0.05142         0.011434      0.020698      0.018796
Mn	      3.90838      4.38177     -4.33702         0.008358      0.011576      0.039159
Mn	      6.03695      6.32552     -8.05749        -0.014475     -0.003496     -0.021275
Mn	      5.94592     -0.06191     -2.16064         0.013359      0.020321      0.019645
Mn	      7.91934      2.16721     -6.44627         0.008464      0.011557      0.039253
Mn	     10.04781      4.11158    -10.16705        -0.013205     -0.004412     -0.022997
Mn	      3.98856      6.46596      2.08144        -0.018845     -0.024229     -0.000754
Mn	      5.93389      8.68428     -2.14957        -0.001885      0.013856      0.037286
Mn	      8.01087     10.67389     -5.95857        -0.021463     -0.014018     -0.030458
Mn	      7.99957      4.25171     -0.02757        -0.020356     -0.024398     -0.002434
Mn	      9.94503      6.46957     -4.25903        -0.002566      0.015644      0.037814
Mn	     12.02166      8.45976     -8.06770        -0.021307     -0.015011     -0.033430
Mn	      5.95707      8.74146      2.03437        -0.007199      0.043267     -0.019914
Mn	      7.94766     10.81662     -2.10660        -0.006678      0.018842     -0.011602
Mn	      6.04423      4.24623    -10.36650        -0.008604     -0.002832      0.009149
Mn	      9.96822      6.52681     -0.07474        -0.008223      0.042700     -0.020360
Mn	     11.95874      8.60238     -4.21611        -0.008437      0.018873     -0.010481
Mn	     10.05512      2.03197    -12.47589        -0.007429     -0.003413      0.008087
Mn	      4.01157      4.34682     -0.04007        -0.006407      0.007366      0.005888
Mn	      6.03532      6.45796     -4.19936        -0.015237      0.051629     -0.019408
Mn	      8.01380      8.59363     -8.25486        -0.004668      0.023594     -0.005124
Mn	      8.02258      2.13232     -2.14916        -0.006248      0.007892      0.004815
Mn	     10.04607      4.24341     -6.30889        -0.014941      0.052287     -0.019465
Mn	     12.02475      6.37954    -10.36416        -0.004459      0.023550     -0.007031
O	      4.01083     -0.32346     -2.01047         0.029858     -0.056009     -0.005174
O	      5.94490      1.83642     -6.15057        -0.060438     -0.031137     -0.020005
O	      8.00631      4.04134    -10.45892        -0.016943     -0.039139      0.004685
O	      8.02125     -2.53784     -4.11963         0.031325     -0.054669     -0.005638
O	      9.95581     -0.37752     -8.26041        -0.059914     -0.032573     -0.017906
O	     12.01742      1.82678    -12.56794        -0.017424     -0.037892      0.003492
O	      6.04447      4.02844     -0.03353         0.048317     -0.012371     -0.006951
O	      7.95964      6.14353     -4.13192        -0.070223     -0.037557     -0.015941
O	      9.98030      8.38042     -8.34625        -0.013562     -0.043700      0.007590
O	     10.05549      1.81393     -2.14283         0.048312     -0.012430     -0.006296
O	     11.97028      3.92926     -6.24154        -0.067616     -0.036222     -0.015044
O	     13.99150      6.16632    -10.45561        -0.014527     -0.044070      0.008135
O	      5.91040      1.90456     -1.99820        -0.052066     -0.007275      0.002032
O	      8.08131      4.06041     -6.12663         0.035787      0.010188      0.034064
O	     10.00646      6.18760    -10.25406        -0.016344      0.015515      0.035464
O	      9.92127     -0.30969     -4.10752        -0.050760     -0.008774      0.002729
O	     12.09260      1.84651     -8.23588         0.036078      0.007997      0.033477
O	     14.01740      3.97343    -12.36307        -0.013992      0.015198      0.032756
O	      7.94727      6.19920      0.20813        -0.036608     -0.000493      0.066012
O	     10.02108      8.38388     -4.00789         0.025149      0.008929      0.053218
O	     11.98867     10.54133     -8.14846        -0.006455      0.020407      0.036463
O	     11.95758      3.98425     -1.90090        -0.035735      0.001837      0.063553
O	     14.03183      6.16981     -6.11737         0.027132      0.008912      0.053330
O	     15.99985      8.32721    -10.25773        -0.005926      0.019524      0.035241
O	      3.88588      2.40483     -4.29936        -0.011581     -0.002226     -0.017371
O	      5.89494      4.42017     -8.44221        -0.037859     -0.045505     -0.043575
O	      7.94892      6.52322    -12.60494        -0.020045     -0.023117     -0.011423
O	      7.89709      0.19033     -6.40867        -0.012048     -0.002625     -0.017762
O	      9.90597      2.20624    -10.55165        -0.038585     -0.044569     -0.041500
O	     11.95979      4.30870    -14.71376        -0.020474     -0.023335     -0.013839
O	      5.86102      6.65669     -2.15088        -0.024848     -0.017666     -0.038306
O	      7.87081      8.77198     -6.33393        -0.030050     -0.031210     -0.045620
O	     10.03815     10.85627    -10.51040         0.042626      0.015977     -0.005293
O	      9.87190      4.44210     -4.26049        -0.024684     -0.018315     -0.037015
O	     11.88161      6.55787     -8.44311        -0.028580     -0.031052     -0.046355
O	     14.04888      8.64190    -12.61954         0.044959      0.015605     -0.004891
O	      3.90129      2.35401     -0.00102        -0.028011      0.026031     -0.005658
O	      5.97027      4.46532     -4.06307         0.061777      0.058484     -0.016148
O	      8.00710      6.66713     -8.33638         0.060935      0.020069     -0.008074
O	      7.91226      0.13975     -2.11042        -0.028517      0.024185     -0.004375
O	      9.98140      2.25096     -6.17253         0.060381      0.057514     -0.016454
O	     12.01817      4.45297    -10.44563         0.059800      0.019897     -0.008779
O	      5.97220      6.71635      2.10482         0.032978      0.001051      0.002784
O	      7.92644      8.90137     -2.09581         0.053040      0.061317      0.025720
O	      9.97957     11.01868     -6.24640         0.063838      0.014456     -0.007790
O	      9.98298      4.50199     -0.00438         0.030922      0.001269      0.004158
O	     11.93741      6.68691     -4.20566         0.052464      0.063518      0.026189
O	     13.99046      8.80449     -8.35597         0.063186      0.011828     -0.007417
O	      2.07605      1.98363     -2.21190         0.003245      0.011441     -0.073063
O	      4.01731      4.03556     -6.34450        -0.005049     -0.038307     -0.064652
O	      6.02017      6.21789    -10.49574         0.000223     -0.018859     -0.048503
O	      6.08713     -0.23117     -4.32123         0.004214      0.010697     -0.071584
O	      8.02829      1.82148     -8.45377        -0.005075     -0.040493     -0.064773
O	     10.03104      4.00350    -12.60517         0.001071     -0.016814     -0.048528
O	      4.02342      6.26691     -0.09696        -0.003397      0.012300     -0.067647
O	      6.02127      8.34275     -4.21236         0.006406     -0.051115     -0.076862
O	      7.99799     10.57231     -8.39771         0.000044     -0.032129     -0.002955
O	      8.03431      4.05240     -2.20597        -0.002619      0.012531     -0.069584
O	     10.03209      6.12828     -6.32188         0.005179     -0.051701     -0.076737
O	     12.00880      8.35831    -10.50710         0.000306     -0.033970     -0.001997
O	      3.93560      4.48385     -1.99258        -0.008115      0.034809     -0.028631
O	      5.92634      6.69609     -6.06745         0.000920      0.045848      0.107584
O	      7.93667      8.69179    -10.25327        -0.001651     -0.013954      0.038529
O	      7.94663      2.26929     -4.10164        -0.008548      0.036532     -0.030517
O	      9.93727      4.48161     -8.17702         0.000353      0.046397      0.108390
O	     11.94751      6.47783    -12.36267        -0.000757     -0.014316      0.039751
O	      5.89381      8.87725      0.13922         0.015525      0.039278      0.020742
O	      7.88807     11.06196     -3.97023        -0.005048      0.052225      0.106077
O	      9.92123     13.04913     -8.14126         0.003140      0.022968      0.047360
O	      9.90454      6.66244     -1.96976         0.017841      0.040563      0.021090
O	     11.89895      8.84793     -6.07964        -0.004913      0.051297      0.107599
O	     13.93221     10.83522    -10.25063         0.002564      0.023683      0.046179
