# total energy = -874.88566826 eV
 
CRYSTAL
PRIMVEC
4.160346 8.700027 4.197207 
8.119176 -4.334034 -4.083448 
6.065760 6.422128 -0.013240 
PRIMCOORD
129 1
Li	      8.19438      0.07016     -4.14983         0.013965     -0.004798      0.002734
Li	     12.23791      4.24862    -12.23784         0.012822     -0.007831     -0.010456
Li	      6.25032      6.39475      0.03153         0.000859     -0.025068     -0.011907
Li	      8.28701      8.71267     -4.08981        -0.003118      0.005917      0.005989
Li	      4.10943      0.18001     -4.07973        -0.009784      0.024006     -0.007707
Li	     10.23117     10.83903     -3.99599         0.002500      0.001348     -0.005823
Li	     12.25152     12.78706     -8.08619         0.004674      0.010478     -0.008184
Li	     12.28095      6.47548     -1.95057        -0.001572     -0.023058     -0.002410
Li	     10.18543      0.14932    -10.17238         0.007317      0.015008     -0.002934
Li	     16.28380     10.53175    -10.15617         0.016305     -0.000692      0.003230
Li	      6.08193      4.15489     -2.02586        -0.004821     -0.030377      0.001079
Li	      8.16446      6.50964     -6.03759         0.001625      0.049755      0.006476
Li	     10.16961      8.81858    -10.11078        -0.001451      0.010188      0.010666
Li	     10.20667      2.19289     -4.00113         0.008912      0.003174      0.007174
Li	     12.16538      4.10175     -8.12237        -0.000301     -0.017552      0.004658
Li	     14.25497      6.66098    -12.12945         0.001237     -0.009438      0.005687
Li	      8.09008      4.26657     -8.07401        -0.010769      0.026058      0.013511
Li	     10.03794      6.43754    -12.11270         0.001058      0.004102     -0.006808
Li	     14.19943      4.11882    -14.23429        -0.001924     -0.008023     -0.006426
Li	     12.15831      4.30180     -3.91935         0.000450     -0.009934     -0.011519
Li	     14.17961      6.60706     -8.02421        -0.007756      0.013288     -0.003026
Mn	      8.11139      4.28285     -3.98164        -0.019952      0.000336      0.016778
Mn	     10.14344      6.43999     -8.04735        -0.010323      0.011988      0.001617
Mn	     12.14401      8.59333    -12.15056        -0.015840      0.020308      0.004930
Mn	     12.16794      2.11839     -6.04536         0.049594      0.001545      0.008020
Mn	     14.21017      4.29572    -10.10592         0.001483     -0.020153      0.010119
Mn	     16.20562      6.40060    -14.20865         0.015892     -0.005409     -0.004881
Mn	      6.05638      0.00759     -6.11589        -0.008815      0.014119     -0.007261
Mn	      8.08257      2.14327    -10.17470        -0.025355     -0.015998      0.000725
Mn	     10.11305      4.24577    -14.27128        -0.002427      0.004427     -0.021895
Mn	     14.25804      6.51754     -3.98229         0.000852      0.017369     -0.021262
Mn	     12.15823     -0.04254    -12.20210        -0.014252      0.023862     -0.003366
Mn	     14.18254      2.11118    -16.29908         0.001137      0.007603     -0.001132
Mn	      2.08423      2.19377     -0.05639        -0.017690     -0.016508     -0.004685
Mn	      4.07264      4.30888     -4.05855         0.004461     -0.001030      0.001356
Mn	      6.09986      6.40080     -8.04675        -0.003355      0.011680      0.009403
Mn	      6.07547      0.06581     -2.04693         0.009817      0.005452     -0.001753
Mn	      8.13902      2.14171     -6.10920         0.002177     -0.001718      0.003551
Mn	     10.17933      4.23319    -10.13666         0.005176      0.009186     -0.009062
Mn	      4.08322      6.45420      2.25252         0.008205     -0.008281     -0.005824
Mn	      6.16175      8.65288     -1.96377        -0.004123     -0.010855     -0.007459
Mn	      8.23721     10.86965     -6.16800        -0.006697      0.003524     -0.005890
Mn	      8.26107      4.28087      0.07958         0.000651     -0.014513      0.002075
Mn	     10.21710      6.48733     -3.99999        -0.002546      0.007369      0.003132
Mn	     12.16259      8.70964     -8.08787        -0.002197      0.015526      0.012770
Mn	      6.22524      8.70024      2.09849        -0.032812      0.007278      0.003301
Mn	      4.10354      2.16326     -6.15509        -0.039686      0.000768     -0.011844
Mn	      6.13915      4.33700    -10.23013        -0.012349     -0.003309     -0.012428
Mn	     10.27065      6.54629      0.03482         0.006710     -0.015193      0.006988
Mn	      8.15525     -0.01092     -8.23280         0.010861     -0.001827     -0.000568
Mn	     10.18817      2.11201    -12.28856         0.014561     -0.010976     -0.017968
Mn	      4.10759      4.32874      0.00628         0.024428     -0.022875      0.017086
Mn	      6.17469      6.46067     -4.02650         0.000175     -0.010318      0.016914
Mn	      8.16452      8.57871     -8.14373        -0.022558     -0.000871      0.001297
Mn	      8.18303      2.13969     -2.02839        -0.007881      0.020241      0.008686
Mn	     10.22291      4.27845     -6.08718        -0.010723     -0.017161      0.009142
Mn	     12.22511      6.45471    -10.16509         0.028139      0.003464      0.011363
O	      4.03914     -0.21402     -2.02721        -0.032204     -0.049351     -0.027699
O	      6.05379      1.92675     -6.20311        -0.025813     -0.040243      0.012113
O	      8.12348      4.08413    -10.14855        -0.021738     -0.027542      0.001614
O	      8.11791     -2.32280     -4.07730        -0.039147     -0.012017     -0.010858
O	     10.08697     -0.27506     -8.24171        -0.039634     -0.020768      0.001263
O	     12.13752      1.90995    -12.29092        -0.051240     -0.016946     -0.003757
O	      6.05506      4.11559      0.00151        -0.062244     -0.009466      0.004237
O	      8.10920      6.24030     -4.06850        -0.067114     -0.031950      0.016840
O	     10.07438      8.35997     -8.17893        -0.053948     -0.039428      0.000076
O	     10.10574      1.89667     -2.01664        -0.096739     -0.058009      0.004149
O	     12.14885      4.07353     -6.03069        -0.059744     -0.055486     -0.013408
O	     14.16590      6.25148    -10.13226        -0.080899     -0.033825      0.001330
O	      6.20314      1.98695     -1.88421         0.026439      0.023464      0.026498
O	      8.25428      4.07839     -6.02968         0.041848      0.008148      0.010638
O	     10.27428      6.18354    -10.09667         0.006363      0.012098      0.006121
O	     10.22216     -0.13514     -3.92140         0.021784      0.071818      0.065411
O	     12.34260      2.04078     -7.96138         0.017973      0.066742      0.049440
O	     14.26942      4.09537    -12.12966         0.010064      0.057492      0.004394
O	      8.26812      6.36221      0.26432         0.002088      0.082170      0.058209
O	     10.29718      8.55526     -3.84699         0.015860      0.078953      0.050653
O	     12.40133     10.74329     -7.91488         0.031912      0.087387      0.063127
O	     12.42729      4.21951     -1.86970         0.048287      0.078970      0.008272
O	     14.43828      6.34471     -5.98357         0.057388      0.061810      0.027630
O	     16.50476      8.56938     -9.97243         0.053868      0.091564      0.043982
O	      3.92895      2.24226     -4.23863        -0.019316     -0.070982     -0.049514
O	      6.05104      4.40616     -8.27353        -0.018053     -0.067559     -0.060471
O	      8.07004      6.59910    -12.41346        -0.020251     -0.056797     -0.052739
O	      8.01993      0.20398     -6.17322        -0.030488     -0.014161     -0.012694
O	     10.06070      2.29813    -10.31134        -0.016986     -0.011133     -0.031676
O	     12.12640      4.52929    -14.33461        -0.022768     -0.013219      0.004973
O	      5.99783      6.63097     -2.02362        -0.056170     -0.054766     -0.023507
O	      8.01759      8.77280     -6.14203        -0.056462     -0.090051     -0.015941
O	      9.99019     10.83636    -10.27507        -0.032019     -0.087006     -0.045249
O	     10.13742      4.41830     -4.15715        -0.012721     -0.073007     -0.050245
O	     12.15763      6.62129     -8.25713        -0.016241     -0.062603     -0.050541
O	     14.09110      8.67031    -12.34243        -0.024115     -0.115000     -0.061279
O	      4.12624      2.37049      0.10765         0.064773      0.007790      0.003824
O	      6.17698      4.55425     -3.96859         0.046728      0.004754      0.010946
O	      8.17515      6.61012     -8.02134         0.045840      0.012489     -0.005811
O	      8.14204      0.17317     -2.04320         0.033717      0.014665      0.007498
O	     10.22099      2.35650     -6.00077         0.024294      0.045842     -0.002949
O	     12.23699      4.49121    -10.17094         0.018757      0.040776      0.019718
O	      6.27040      6.73846      2.13785         0.068280      0.043377     -0.022334
O	      8.29061      8.90624     -1.97510         0.063320      0.055352      0.014281
O	     10.32421     11.11570     -5.98764         0.114770      0.047466      0.000781
O	     10.35028      4.62777      0.15891         0.053051      0.026745      0.005064
O	     12.32356      6.72696     -3.93401         0.072756      0.030990     -0.003797
O	     14.37337      8.86901     -8.00081         0.051641      0.012716     -0.008778
O	      1.98304      1.90829     -2.16342        -0.000982     -0.026916     -0.068823
O	      4.02275      4.06408     -6.19344         0.007144     -0.035807     -0.065866
O	      6.04375      6.30035    -10.26165         0.009307     -0.032234     -0.054173
O	      6.10320     -0.20690     -4.16109        -0.008146     -0.004125     -0.046911
O	      8.06694      1.94782     -8.22628         0.012583     -0.022363     -0.027072
O	     10.18999      4.09457    -12.29941        -0.000439     -0.005471     -0.045075
O	      4.13582      6.29055      0.00951        -0.006672     -0.028204     -0.050712
O	      6.17173      8.46453     -4.04868         0.002462     -0.023439     -0.037608
O	      8.05970     10.50194     -8.21145        -0.009561     -0.026363     -0.078295
O	      8.10999      4.04229     -2.04906        -0.009422     -0.065111     -0.046238
O	     10.13344      6.20545     -6.11473        -0.008482     -0.035283     -0.022990
O	     12.12079      8.36786    -10.22391         0.000179     -0.033214     -0.049496
O	      4.12439      4.55135     -1.92177         0.002537      0.035945      0.068261
O	      6.16956      6.71760     -5.95438         0.003621      0.023700      0.070155
O	      8.07883      8.79789    -10.10055         0.006385      0.031051      0.054188
O	      8.20035      2.31961     -3.97999         0.001237      0.018416      0.039911
O	     10.16763      4.49156     -8.03907        -0.004550      0.017166      0.051688
O	     12.14794      6.61697    -12.13919        -0.017035      0.007230      0.041652
O	      6.15036      8.85222      0.13697        -0.005983      0.020463      0.062770
O	      8.17785     11.02629     -3.92857         0.010089      0.018763      0.054864
O	     10.32526     13.24189     -7.94985         0.003474      0.040893      0.086158
O	     10.32049      6.77514     -1.88852        -0.002030      0.043721      0.005459
O	     12.31292      8.93218     -5.96788         0.001127      0.063224      0.049467
O	     14.36777     11.03788    -10.01989         0.022450      0.030091      0.042873
