# total energy = -880.03637694 eV
 
CRYSTAL
PRIMVEC
4.188232 8.717624 4.203309 
8.129426 -4.322129 -4.084742 
6.090038 6.437974 -0.013270 
PRIMCOORD
130 1
Li	      8.18173      6.59362    -10.27252         0.014182     -0.007684     -0.005668
Li	     10.29076     10.83118     -8.11214         0.006876     -0.007102     -0.009447
Li	     12.32776      6.49729     -6.06556         0.007555     -0.019265     -0.014725
Li	      4.13463      0.25090     -4.03750        -0.009643      0.007895      0.004460
Li	     10.24440     10.75819     -3.95815        -0.010817     -0.008855      0.003655
Li	      8.17220      4.40283    -12.23472        -0.001186      0.011530      0.001462
Li	      8.14328     -1.97490     -6.12185        -0.007347      0.009506     -0.007726
Li	     10.23988      0.21362    -10.15741        -0.010960      0.014575     -0.010037
Li	     12.21828      2.27521    -14.27078         0.000523      0.020482      0.010715
Li	      6.10493      4.16939     -2.02396         0.008207     -0.019275     -0.004158
Li	      8.15790      6.47945     -6.04328         0.000807      0.000038     -0.000450
Li	     10.20580      8.47817    -10.21144         0.011188     -0.011793      0.001663
Li	     10.18810      2.04061     -4.03449         0.005952     -0.007376     -0.013799
Li	     12.17919      4.12915     -8.14528         0.009028     -0.016084     -0.006474
Li	     14.22039      6.23019    -12.23588         0.019431      0.005252      0.010495
Li	      8.10566      4.20167     -8.06165        -0.013315     -0.004254      0.009585
Li	      8.13018      6.46003     -1.89896        -0.001693      0.006704      0.007163
Li	     10.15982      8.63207     -5.94743        -0.001441     -0.002209      0.008113
Li	     12.28954     10.84733    -10.12219        -0.005865      0.015366      0.007525
Li	     12.19390      4.29127     -3.92635        -0.003313      0.000005      0.003051
Li	     14.30395      6.41535     -8.04481        -0.004398     -0.004426      0.003332
Li	     16.26059      8.73423    -12.07652         0.007168      0.006674      0.016092
Mn	      8.13199      4.33101     -4.00297         0.002201      0.006549     -0.019127
Mn	     10.20321      6.49460     -8.07878         0.011399     -0.011111     -0.038128
Mn	     12.23791      8.64301    -12.14711         0.002678     -0.016146      0.003863
Mn	     12.23364      2.19859     -6.01438         0.025265     -0.019540     -0.034416
Mn	     14.26066      4.31468    -10.09122        -0.010237      0.015442     -0.001374
Mn	     16.27424      6.45809    -14.20640        -0.011341      0.011677     -0.014656
Mn	     10.23564      8.69743     -1.89661        -0.027920      0.008433     -0.015461
Mn	      8.10930      2.13121    -10.19195         0.020714     -0.002732     -0.007183
Mn	     14.30563     12.97815    -10.09512         0.018184      0.022976      0.023851
Mn	     14.31877      6.55199     -3.95220         0.009439      0.002065      0.019786
Mn	     16.34579      8.68451     -8.01841        -0.011912      0.008196      0.010063
Mn	     12.26266      4.37508      0.11246         0.033467      0.028922      0.008930
Mn	      2.07157      2.24080     -0.07887        -0.010856     -0.005806     -0.008006
Mn	      4.09358      4.33054     -4.05470         0.000601      0.023335     -0.002676
Mn	      6.02415      6.50834     -8.08462         0.012775     -0.002789     -0.013131
Mn	      6.14346      0.00656     -2.02447        -0.003485      0.015737      0.004362
Mn	      8.16051      2.09688     -6.02689         0.002614      0.009415      0.000725
Mn	     10.29551      4.27903    -10.26034        -0.009881     -0.004489      0.007563
Mn	      4.17465      6.54604      2.10840         0.004049      0.018184     -0.002617
Mn	      6.23864      8.65101     -1.94407         0.001801      0.000917      0.012145
Mn	      8.17875     10.82069     -6.01288        -0.012880      0.002916     -0.001275
Mn	      8.23963      4.36772      0.06249        -0.010076     -0.001161      0.000189
Mn	     10.20428      6.53157     -3.96129         0.012905      0.002997      0.000114
Mn	     12.33485      8.66522     -8.12017         0.012248      0.000723      0.005463
Mn	      6.27424      8.66780      2.10549         0.005560      0.023443     -0.006412
Mn	      4.10526      2.14077     -6.15915        -0.005699      0.018074      0.009280
Mn	     10.30539     12.99661     -6.03512        -0.010863      0.012826      0.051388
Mn	     10.31013      6.50550      0.05806        -0.002770      0.034373      0.002907
Mn	      8.17579      0.00213     -8.19115        -0.021666     -0.020780      0.009341
Mn	     14.37726     10.82587     -8.11500         0.011521     -0.003720      0.023695
Mn	      4.19427      4.40984      0.03559        -0.017796     -0.032587     -0.015885
Mn	      6.16678      6.51174     -4.05200         0.005976     -0.032037     -0.007985
Mn	      8.20713      8.64290     -8.14341        -0.004697     -0.008933      0.018640
Mn	      8.23226      2.22913     -2.01715        -0.011512     -0.018466     -0.017338
Mn	     10.24109      4.34076     -6.07913         0.012822     -0.012108      0.001965
Mn	     12.28703      6.50510    -10.19535         0.018685     -0.025074     -0.001371
O	      4.00554     -0.26550     -2.13552        -0.048021     -0.037769      0.011699
O	      6.02565      1.89337     -6.17639        -0.049927     -0.022143     -0.005153
O	      8.07673      4.09222    -10.19227        -0.067080     -0.024945     -0.005836
O	      8.03996     -2.44390     -4.19592        -0.066369     -0.030528      0.000985
O	     10.10268     -0.24944     -8.23149        -0.067249     -0.026014      0.011353
O	     12.10366      1.88687    -12.32793        -0.087034     -0.013265     -0.009468
O	      6.16960      4.15317      0.11706        -0.016982      0.002278     -0.023166
O	      8.11422      6.27374     -3.99557        -0.063522     -0.023257     -0.016629
O	     10.17611      8.48020     -8.06606        -0.058526     -0.025894     -0.015019
O	     10.21130      1.96610     -1.91590        -0.000843     -0.029834     -0.016695
O	     12.19800      4.18488     -6.02597        -0.027636     -0.023990     -0.012803
O	     14.23881      6.26702    -10.09822        -0.046873     -0.010665     -0.014319
O	      6.32577      2.07991     -1.83866         0.035194      0.064692      0.035828
O	      8.30448      4.20824     -5.99407         0.031867      0.061730      0.045489
O	     10.28844      6.38343    -10.03135         0.016106      0.082209      0.036410
O	     10.40254     -0.03991     -3.87545         0.042283      0.085827      0.028150
O	     12.36038      2.06606     -7.94383         0.008050      0.076968      0.051438
O	     14.41319      4.22400    -12.05489         0.038021      0.073728      0.025306
O	      8.34125      6.29493      0.12530         0.005915      0.008364      0.013910
O	     10.39918      8.59052     -3.91754         0.029285      0.082085      0.032531
O	     12.36061     10.71359     -8.01349         0.017391      0.075798      0.011848
O	     12.40661      4.14172     -1.90333         0.001017     -0.009484      0.022951
O	     14.39098      6.36037     -5.97211         0.004478      0.068714      0.016280
O	     16.51459      8.54780    -10.03774         0.025013      0.064438      0.023405
O	      3.93277      2.27269     -4.22640        -0.034268     -0.069445     -0.028708
O	      6.04498      4.43259     -8.32384        -0.016170     -0.069469     -0.054175
O	      7.96504      6.54775    -12.32755        -0.049861     -0.079144     -0.001412
O	      8.00664      0.06500     -6.26969        -0.024598     -0.077243     -0.034373
O	     10.03927      2.23056    -10.39119        -0.052230     -0.076861     -0.036733
O	     12.03769      4.36092    -14.46383        -0.024393     -0.067745     -0.025851
O	      6.10507      6.65325     -2.09852        -0.037878     -0.057023     -0.017861
O	      8.14309      8.75727     -6.19034        -0.025060     -0.065176     -0.038462
O	     10.23464     11.04202    -10.17579         0.007424     -0.009436     -0.022245
O	     10.16765      4.49392     -4.16123        -0.030483     -0.073194     -0.040122
O	     12.19595      6.62355     -8.15611        -0.024074     -0.066604     -0.032554
O	     14.27694      8.87622    -12.30234        -0.018639     -0.008266     -0.020290
O	      4.21776      2.49133      0.10185         0.067819      0.020963      0.005637
O	      6.18893      4.58887     -3.98910         0.059223      0.027098      0.003252
O	      8.24665      6.68209     -8.15225         0.055800      0.025803      0.005663
O	      8.25934      0.29400     -1.92087         0.049740      0.018374     -0.000661
O	     10.30103      2.43508     -6.01238         0.054744      0.025670      0.010859
O	     12.33104      4.58228    -10.10733         0.080945      0.021803      0.003709
O	      6.25085      6.70416      2.22152         0.003368      0.003373      0.000211
O	      8.30857      8.89386     -1.86038         0.052224      0.013311      0.008075
O	     10.33164     11.01538     -6.05006         0.052920      0.025753      0.007958
O	     10.30184      4.51784      0.17426         0.027295      0.011579      0.006359
O	     12.36086      6.74014     -4.01745         0.059001      0.020654      0.006449
O	     14.40114      8.86906     -8.00403         0.041991      0.013970     -0.011309
O	      1.97305      1.87563     -2.15281        -0.026095     -0.015388     -0.060455
O	      4.03517      4.05890     -6.20859        -0.011805     -0.034122     -0.067428
O	      6.13314      6.21335    -10.29499        -0.018880     -0.023402     -0.069101
O	      6.06056     -0.29857     -4.17440        -0.012881     -0.017778     -0.058423
O	      8.08969      1.96051     -8.24474        -0.012468     -0.008702     -0.047791
O	     10.13405      4.02904    -12.35860        -0.017470     -0.021087     -0.081275
O	      4.08675      6.37161      0.03639         0.008349     -0.013638     -0.045178
O	      6.08968      8.48355     -4.06271         0.016184     -0.010596     -0.057308
O	      8.21806     10.60435     -8.16245         0.000813     -0.028508     -0.044156
O	      8.12640      4.18573     -2.04699         0.014936     -0.009691     -0.023196
O	     10.24469      6.35751     -6.11754        -0.001926     -0.027241     -0.053344
O	     12.20034      8.46561    -10.20565        -0.008482     -0.020373     -0.069223
O	      4.18114      4.61366     -1.87672         0.006379      0.026130      0.064478
O	      6.19422      6.73391     -5.98562         0.010621      0.027194      0.079096
O	      8.25081      8.82244    -10.08825         0.013485      0.001786      0.041989
O	      8.24261      2.41945     -3.93716         0.023066      0.012003      0.085678
O	     10.17780      4.57002     -8.04027         0.008477      0.023735      0.061044
O	     12.31953      6.72982    -12.11237         0.016312      0.025258      0.059661
O	      6.17599      8.91726      0.13912        -0.009647      0.013462      0.028062
O	      8.21445     11.06487     -3.91626        -0.001459      0.013848      0.084184
O	     10.23672     13.14523     -8.01288         0.004706      0.015520      0.035039
O	     10.22273      6.75006     -1.89461         0.002751      0.000025      0.085492
O	     12.28018      8.88891     -5.95656        -0.003521      0.028936      0.055626
O	     14.29375     11.03844    -10.06989         0.006907      0.025418      0.032562
