# total energy = -885.54057089 eV
 
CRYSTAL
PRIMVEC
4.227135 8.723739 4.178631 
8.168348 -4.303277 -4.068634 
6.143452 6.454971 -0.013309 
PRIMCOORD
131 1
Li	     10.29329      2.04259     -8.09059         0.002971      0.020355     -0.005399
Li	     10.41934     10.81736     -8.12566         0.014864     -0.004655     -0.015548
Li	     10.38929      4.34500     -2.03032         0.014452     -0.010132     -0.005726
Li	     12.44755      6.38684     -6.05066         0.000458      0.016976     -0.001618
Li	      8.27589      8.55207      0.08271         0.007098      0.010908     -0.000729
Li	      6.14413      2.22636     -8.08614         0.008690      0.042101      0.003719
Li	      8.18623      4.31131    -12.20362        -0.002567     -0.010458     -0.008117
Li	      8.20698     -2.01509     -6.10590         0.001107      0.012198      0.005952
Li	     14.42826      8.51222     -6.03663         0.003811      0.006800     -0.007418
Li	     16.49025     10.85095    -10.05203        -0.003258      0.008388     -0.007618
Li	      6.25442      4.57504     -1.91987        -0.011478     -0.012608     -0.004926
Li	      8.20983      6.55619     -6.01971        -0.005852      0.005263     -0.005432
Li	     10.29449      8.79794    -10.12139         0.007233      0.006978      0.011427
Li	     10.24473      1.97800     -4.06461         0.002677      0.005644     -0.001545
Li	     12.35393      4.47477     -8.06848        -0.011759      0.008765      0.002381
Li	     14.35316      6.51209    -12.14488         0.010641     -0.008584      0.001996
Li	      6.09312      2.22469     -3.96719        -0.011238      0.016842      0.007552
Li	      8.14666      4.35892     -8.00923        -0.013624      0.019183      0.015174
Li	     10.17888      6.57553    -12.14769         0.005648     -0.009628     -0.020894
Li	     12.29961      2.17651    -10.12423         0.006292     -0.005818      0.013821
Li	     14.32013      4.42686    -14.19000        -0.006951     -0.012468      0.008406
Li	     10.25941      8.74150     -5.95924        -0.012444     -0.010920      0.003380
Li	     16.37058      8.71283    -12.04190        -0.003492     -0.017639     -0.003782
Mn	      8.17273      4.37053     -3.99463        -0.018129      0.009114     -0.005534
Mn	     10.22898      6.57613     -8.08137        -0.012327      0.051653      0.000319
Mn	     12.29939      8.65350    -12.14223         0.007892     -0.008036      0.004884
Mn	     12.31147      2.24392     -5.99929        -0.001800     -0.017988      0.005284
Mn	     14.33599      4.35567    -10.08385         0.001507     -0.001827     -0.013688
Mn	     16.40511      6.54922    -14.16325         0.002178     -0.017118     -0.013955
Mn	     10.29364      8.68538     -1.92300         0.002612      0.029640      0.003171
Mn	      8.17048      2.13647    -10.13499         0.007060     -0.001440     -0.009147
Mn	     10.21055      4.31005    -14.18998         0.002431      0.007825     -0.037292
Mn	      2.05298      2.14895     -4.02437         0.025031     -0.018402      0.002818
Mn	     12.25436      0.01493    -12.14829        -0.010273      0.000656      0.003643
Mn	     10.37757     15.15178     -8.01228         0.007775      0.001889     -0.013739
Mn	      2.06867      2.24928     -0.05506        -0.004128      0.002430      0.018851
Mn	      4.12388      4.29227     -3.97830        -0.007753     -0.002041      0.001164
Mn	      6.18429      6.50558     -8.13937         0.005258      0.002769      0.000676
Mn	      6.16540      0.02401     -2.03457         0.005920     -0.005378     -0.014505
Mn	      8.21574      2.10676     -6.01558         0.009699     -0.016553     -0.001223
Mn	     10.27077      4.35201    -10.17184         0.003500      0.031764      0.008416
Mn	      4.31392      6.52293      2.01397         0.001865     -0.001821     -0.000370
Mn	      6.31296      8.64117     -1.96827        -0.011691     -0.006681     -0.001121
Mn	      8.17461     10.85549     -5.91757        -0.013719     -0.001986      0.004858
Mn	      8.17144      4.42151      0.13930        -0.005444      0.012183      0.003268
Mn	     10.26188      6.54388     -3.95194         0.008530     -0.031368     -0.013976
Mn	     12.49859      8.67875     -8.17596        -0.008034     -0.005882      0.000349
Mn	      6.29159      8.73086      2.07652         0.008027     -0.002210      0.005867
Mn	      8.34041     10.87854     -1.96084         0.015725     -0.028056     -0.004326
Mn	      6.17506      4.29660    -10.19994        -0.028979      0.019330      0.017132
Mn	     10.37643      6.54279      0.06074        -0.011333     -0.019310      0.024230
Mn	     12.44897      8.69787     -3.98854         0.013673     -0.030503      0.034401
Mn	     10.27188      2.18471    -12.23927         0.001957     -0.029193     -0.028777
Mn	      4.19694      4.33667      0.00769        -0.003929      0.016508     -0.006689
Mn	      6.20732      6.48270     -4.05819        -0.023028      0.015320      0.015797
Mn	      8.26620      8.69423     -8.11615        -0.004778      0.003028      0.021980
Mn	      8.26747      2.19830     -2.00503        -0.013133      0.010325      0.005876
Mn	     10.33216      4.37815     -6.03232        -0.027233      0.003604      0.001729
Mn	     12.35746      6.44992    -10.18152        -0.009073      0.020396      0.006135
O	      4.02840     -0.21557     -1.99916        -0.056514     -0.022543      0.004754
O	      6.07100      1.90519     -6.06060        -0.073152     -0.037968     -0.006397
O	      8.13610      4.07455    -10.11702        -0.025982     -0.026546      0.000171
O	      8.11216     -2.39687     -4.04724        -0.077340     -0.033900      0.005542
O	     10.16654     -0.16221     -8.18615        -0.076093     -0.019569     -0.000400
O	     12.23520      1.95983    -12.16243        -0.050205     -0.018280      0.002632
O	      6.12050      4.11019      0.00441        -0.099178     -0.040011      0.002761
O	      8.11519      6.27984     -4.07166        -0.038306     -0.036709      0.010396
O	     10.22952      8.56209     -8.07058        -0.066216      0.019519      0.005796
O	     10.23300      2.06211     -1.95165        -0.063193     -0.021203     -0.003137
O	     12.27626      4.22149     -6.09799        -0.054182     -0.000001      0.012961
O	     14.28209      6.26636    -10.17241        -0.085019     -0.039618      0.017261
O	      6.34054      2.05591     -1.94559         0.043262      0.063929      0.016246
O	      8.37306      4.23060     -5.96545         0.030760      0.076813      0.024039
O	     10.40367      6.26471    -10.18460         0.022715     -0.019921     -0.033807
O	     10.41674     -0.02010     -3.88569         0.024658      0.070789      0.034467
O	     12.37160      2.04372     -8.03855         0.021093      0.075657      0.003071
O	     14.51127      4.27031    -12.12871         0.023404      0.072639      0.031933
O	      8.44646      6.44770      0.25852         0.036273      0.073853      0.019511
O	     10.46895      8.53043     -3.94157         0.013502      0.020131     -0.002444
O	     12.50074     10.76482     -7.89067         0.020719      0.080596      0.040270
O	     12.47627      4.25641     -1.82253         0.024189      0.074896      0.025404
O	     14.52097      6.43443     -5.88621         0.025544      0.060151      0.026118
O	     16.64418      8.60698    -10.00243         0.055384      0.065342      0.005942
O	      4.02647      2.28619     -4.18112        -0.027292     -0.067794     -0.018646
O	      6.10433      4.42139     -8.26459        -0.021723     -0.085140     -0.036159
O	      8.11600      6.58871    -12.35734        -0.029167     -0.070468     -0.008688
O	      8.02450      0.06122     -6.25072        -0.024022     -0.089352     -0.043498
O	     10.19170      2.38447    -10.17458        -0.022270     -0.008327     -0.005736
O	     12.25204      4.42762    -14.39972        -0.022962     -0.070114     -0.033069
O	      6.06797      6.62965     -2.11438        -0.025945     -0.054048     -0.035122
O	      8.16617      8.78987     -6.17186        -0.024565     -0.069349     -0.014747
O	     10.19437     10.93043    -10.17646        -0.029944     -0.064286     -0.021302
O	     10.15169      4.56444     -4.04863        -0.012300     -0.047368     -0.018586
O	     12.17854      6.61031     -8.17981        -0.002336     -0.062122     -0.021265
O	     14.31698      8.79043    -12.27550        -0.027702     -0.073575     -0.032740
O	      4.19955      2.36979      0.08741         0.068901      0.022473     -0.008413
O	      6.24072      4.50935     -3.94817         0.071426      0.028038     -0.005872
O	      8.30353      6.74067     -8.02067         0.042638      0.039174     -0.007138
O	      8.32255      0.23969     -1.93111         0.075396      0.025753     -0.006820
O	     10.35485      2.44996     -6.05871         0.077948      0.045461     -0.005999
O	     12.37444      4.49252    -10.06205         0.019544      0.012344     -0.006684
O	      6.35916      6.79989      2.17652         0.084697      0.027288     -0.005637
O	      8.37540      8.95563     -1.90049         0.074526      0.018774     -0.016082
O	     10.43699     11.02024     -6.01263         0.067939      0.029637      0.013960
O	     10.42124      4.56687      0.05908         0.056724      0.021398     -0.003306
O	     12.50908      6.78371     -4.01187         0.037848      0.028094     -0.010151
O	     14.54879      8.98788     -7.97160         0.090700      0.036156     -0.005271
O	      1.98616      1.93254     -2.12011         0.001555     -0.035161     -0.069496
O	      4.04776      4.12955     -6.13915         0.001148     -0.028380     -0.052310
O	      6.10420      6.23511    -10.25215        -0.006129     -0.033624     -0.066277
O	      6.07362     -0.23559     -4.15324         0.006254     -0.030968     -0.068556
O	      8.21140      1.96278     -8.17464        -0.011103     -0.025353     -0.064149
O	     10.17748      4.13473    -12.22704        -0.004402     -0.021388     -0.030688
O	      4.12186      6.26853     -0.01133        -0.009877     -0.011767     -0.089375
O	      6.16219      8.40210     -4.07456        -0.013387     -0.028356     -0.055089
O	      8.29558     10.67110     -8.12966        -0.009159     -0.005949     -0.046214
O	      8.27875      4.14123     -2.03792        -0.013175     -0.034051     -0.049911
O	     10.33469      6.36353     -5.95586         0.001712     -0.031770      0.037531
O	     12.27038      8.37408    -10.21268        -0.011145     -0.025027     -0.088071
O	      4.20110      4.62040     -1.91315         0.003110      0.035545      0.063894
O	      6.15545      6.72271     -6.01173         0.010811      0.018286      0.067395
O	      8.21772      8.92183    -10.06492        -0.003734      0.032303      0.062414
O	      8.21263      2.41766     -3.95110         0.003385      0.027336      0.084940
O	     10.21370      4.57324     -8.01916         0.000247     -0.036225      0.037230
O	     12.30398      6.70557    -12.14130         0.015535      0.020014      0.065153
O	      6.34305      8.96041      0.15541        -0.001836      0.034577      0.067352
O	      8.38994     11.12804     -3.87489         0.018309      0.025088      0.089697
O	     10.36354     13.16740     -7.97784         0.012323      0.012834      0.050710
O	     10.39818      6.72118     -1.92735         0.010633      0.001012      0.027392
O	     12.39725      8.89873     -5.94872        -0.002008      0.035419      0.050955
O	     14.52356     11.11167     -9.98469         0.007611      0.024784      0.077787
