# total energy = -888.61071712 eV
 
CRYSTAL
PRIMVEC
4.106678 8.656057 4.162791 
8.213931 -4.339492 -4.168568 
6.195099 6.391710 -0.013713 
PRIMCOORD
132 1
Li	      4.21922      2.32380     -2.14158         0.005842     -0.009306      0.010486
Li	      8.25540      6.34712    -10.32716         0.001919      0.000320     -0.013990
Li	      8.15759      0.08392     -4.22821         0.001737     -0.007941      0.000884
Li	     12.40598      4.11482    -12.33093        -0.005633      0.012300     -0.017809
Li	      6.24779      6.72439     -0.06476         0.000575      0.000811      0.000546
Li	     10.33535     10.55319     -8.14365        -0.001497      0.001966     -0.020190
Li	     10.24806      4.40667     -2.20832        -0.016722     -0.014607      0.005236
Li	     14.48587      8.38527    -10.22547         0.015609     -0.010253     -0.001581
Li	      4.15591      0.18688     -4.16190         0.000495     -0.009063      0.006433
Li	     12.34077     12.74862     -8.13226         0.013309      0.009770     -0.010574
Li	      8.18717     -2.05069     -6.24089        -0.004594     -0.012521      0.008920
Li	     16.42242     10.64555    -10.24993        -0.000542     -0.004347     -0.009226
Li	      6.16572      4.27039     -2.12734         0.001064     -0.000935      0.005194
Li	     10.35313      8.45641    -10.26827        -0.002768      0.005955      0.006489
Li	     10.31008      2.24478     -4.16983        -0.012032      0.008577      0.020624
Li	     14.42105      6.30070    -12.34349         0.009458      0.006252     -0.006086
Li	      8.10052      4.18821     -8.12707         0.001124      0.018961      0.005412
Li	     10.31621      6.30302    -12.27372         0.005985      0.003168     -0.002337
Li	     10.28116      0.09343     -6.19883        -0.002693     -0.000347      0.033216
Li	     14.31735      4.06671    -14.44029        -0.005609      0.010415     -0.013208
Li	      8.13451      6.57833     -2.13372        -0.014952      0.016854      0.015150
Li	     12.38421     10.55980    -10.15789         0.009330      0.019238      0.009859
Li	     12.31965      4.42379     -4.18045         0.008333      0.033853      0.022445
Li	     16.41422      8.34258    -12.31047        -0.009486      0.015392     -0.005675
Mn	      8.07935      4.19703     -4.22889         0.000295     -0.022242      0.017272
Mn	     10.25214      6.40439     -8.16658         0.040378      0.007060     -0.001465
Mn	     12.39469      8.53276    -12.26484        -0.002532      0.003481      0.013666
Mn	     12.33976      2.13561     -6.22438         0.008484      0.007581     -0.004783
Mn	      6.17395      8.58850     -6.08291         0.009454     -0.045530      0.035498
Mn	      8.21668     10.62187    -10.27691        -0.005910      0.005373     -0.007353
Mn	     10.17429      8.59871     -2.11068        -0.010910      0.005008      0.009718
Mn	      8.16787      2.11954    -10.19600         0.034583     -0.028888     -0.043034
Mn	     10.28956      4.26485    -14.35932         0.007877      0.004655     -0.005078
Mn	     10.25353     -2.12721     -8.30088         0.028285     -0.022247     -0.023139
Mn	     12.32801     -0.04902    -12.28502        -0.020448     -0.052379      0.029971
Mn	     18.43834     10.63280    -12.35013        -0.001844      0.012645     -0.018183
Mn	      2.05996      2.16133     -0.00574        -0.007937     -0.012792      0.006727
Mn	      4.07596      4.39983     -4.26698         0.009815      0.021788      0.045174
Mn	      6.19821      6.37723     -8.06940        -0.009938     -0.002578     -0.036432
Mn	      6.15123     -0.00579     -2.10476        -0.004809     -0.020906     -0.014672
Mn	      8.13524      2.10875     -6.25703         0.014049      0.009797      0.014102
Mn	     10.40569      4.17631    -10.15278        -0.018794     -0.014678     -0.035688
Mn	      4.12530      6.47337      2.08779        -0.000501      0.003332     -0.004058
Mn	      6.10301      8.77895     -2.28030        -0.002270      0.023913      0.026451
Mn	      8.32214     10.60724     -5.86791         0.007785     -0.024662     -0.017482
Mn	      8.21036      4.28668     -0.00189         0.017716      0.006698     -0.001818
Mn	     10.18338      6.51178     -4.30299        -0.009451     -0.007804      0.031401
Mn	     12.48994      8.46495     -7.96020         0.024294      0.019005     -0.030231
Mn	      2.09965      0.09480     -2.07248         0.003497     -0.017832     -0.002814
Mn	      4.18161      2.14553     -6.21268        -0.019608      0.032691     -0.031612
Mn	     10.27841     12.90273     -6.12826        -0.000985     -0.005300     -0.006375
Mn	     10.22017      6.41518     -0.09093         0.000946     -0.021026     -0.001939
Mn	      8.26986     -0.01929     -8.31188        -0.023758     -0.014117     -0.033163
Mn	     10.36034      2.13362    -12.27434         0.007094      0.018548     -0.020282
Mn	      4.20669      4.38852      0.00057        -0.016760      0.001507      0.009966
Mn	      6.18641      6.44541     -4.19309         0.001262      0.014806     -0.017296
Mn	      8.26861      8.52058     -8.21748        -0.027865      0.029366      0.020381
Mn	      8.21497      2.09768     -2.18109         0.003522      0.002787     -0.011475
Mn	     10.36467      4.23686     -6.26178        -0.007433      0.003217      0.031730
Mn	     12.43735      6.41006    -10.24080        -0.002365     -0.018102      0.020609
O	      4.21168     -0.16067     -2.06664         0.036262     -0.010735      0.001133
O	      6.06565      1.81556     -6.19198        -0.074576     -0.029213     -0.016777
O	      8.10775      4.10657    -10.24223        -0.055797     -0.009366     -0.012503
O	      8.08528     -2.41833     -4.20575        -0.005356      0.015508      0.004568
O	     10.25235     -0.23408     -8.16481        -0.013562     -0.016887      0.013842
O	     12.41947      1.94491    -12.40492         0.037369     -0.031287      0.005557
O	      6.29151      4.09141      0.02763         0.017289     -0.065526      0.010118
O	      8.07972      6.11428     -4.08572        -0.072468      0.027918     -0.000597
O	     10.19626      8.36042     -8.27855        -0.057073     -0.021243      0.020668
O	     10.25431      1.89006     -2.10266         0.024612      0.018298     -0.000654
O	     12.29831      4.04172     -6.16654        -0.089048     -0.029842      0.006533
O	     14.41283      6.24207    -10.32606        -0.053724     -0.002013      0.017119
O	      6.20641      1.99592     -1.89026        -0.024938      0.027370      0.050307
O	      8.36967      4.01720     -6.18948         0.036006      0.015857     -0.034112
O	     10.36878      6.22835    -10.16800         0.001306      0.016066      0.002025
O	     10.22141     -0.24955     -4.08241        -0.029335     -0.013394      0.004082
O	     12.43400      1.98230     -8.13484         0.008672      0.030613      0.045094
O	     14.47695      4.09266    -12.31941         0.004179      0.027257     -0.001198
O	      8.23821      6.27415     -0.05034         0.000524      0.013722     -0.023345
O	     10.42543      8.43837     -4.04625         0.036186      0.034524      0.011124
O	     12.34223     10.60757     -7.99959        -0.024362      0.066122      0.033295
O	     12.23759      4.06871     -1.98428        -0.027113     -0.021824     -0.012508
O	     14.53158      6.36735     -6.01612         0.044294      0.081040      0.076450
O	     16.53443      8.42901    -10.19203         0.039184      0.068602      0.006300
O	      3.99347      2.32906     -4.18723        -0.021205     -0.028914     -0.006238
O	      6.11067      4.43932     -8.36731        -0.016985     -0.032393     -0.042796
O	      8.32259      6.62169    -12.42400         0.035509      0.002531      0.005132
O	      8.13785      0.10366     -6.28738         0.003934     -0.019622     -0.029468
O	     10.12955      2.28534    -10.32697        -0.032680     -0.007540      0.015748
O	     12.27812      4.38467    -14.40061         0.023028     -0.008567      0.025201
O	      6.09632      6.63516     -2.15441        -0.040055     -0.064653     -0.020977
O	      8.11082      8.68884     -6.33003        -0.041363     -0.080699     -0.068088
O	     10.41729     10.92896    -10.36160         0.010398      0.016613      0.005802
O	     10.31128      4.46650     -4.31234         0.032140     -0.021564     -0.024801
O	     12.18041      6.52974     -8.33349        -0.053297     -0.074530     -0.027447
O	     14.36836      8.66819    -12.31633        -0.022846     -0.006726      0.039243
O	      4.24862      2.36637      0.04270         0.045116     -0.041341      0.001724
O	      6.03186      4.51787     -4.09343        -0.060045      0.045289     -0.004482
O	      8.25457      6.59968     -8.32473         0.033130      0.024675      0.003319
O	      8.10044      0.15049     -2.12647        -0.032572     -0.025043     -0.003155
O	     10.42445      2.27498     -6.14380         0.053307      0.007692      0.002994
O	     12.47952      4.51833    -10.36626         0.058400      0.019766      0.006558
O	      6.21278      6.74544      2.12029        -0.016305     -0.027402      0.000583
O	      8.22545      8.80977     -2.00248         0.055605      0.011523     -0.006976
O	     10.32915     10.99903     -6.17637         0.091056      0.043328      0.000599
O	     10.13381      4.45570     -0.02263        -0.034072     -0.048868     -0.009426
O	     12.44541      6.68399     -4.06491         0.053099      0.000006     -0.008146
O	     14.53081      8.87429     -8.26640         0.092490     -0.011946     -0.006199
O	      2.09402      2.05900     -2.04363         0.001822      0.027440     -0.044836
O	      4.20616      4.04584     -6.25143        -0.001479     -0.022991     -0.091325
O	      6.17675      6.23216    -10.40008         0.008228     -0.048330     -0.014138
O	      6.13833     -0.31803     -4.30922        -0.005424      0.033620     -0.067032
O	      8.24222      1.91918     -8.25468        -0.009595     -0.026677     -0.020728
O	     10.32905      4.11951    -12.17147         0.002401      0.029607      0.047022
O	      4.19703      6.35655     -0.04700        -0.008506      0.024083     -0.032872
O	      6.27858      8.35600     -4.22914        -0.021289     -0.037200     -0.121057
O	      8.27713     10.49191     -8.34145        -0.005478     -0.019915      0.006330
O	      8.21580      4.01225     -2.25048        -0.014163     -0.011290      0.013980
O	     10.32464      6.14616     -6.27997        -0.006006      0.000649     -0.043814
O	     12.41396      8.40831    -10.29788        -0.002945     -0.006516     -0.051273
O	      4.12740      4.48968     -1.93889        -0.001532      0.022956      0.022284
O	      6.11705      6.70054     -6.07068         0.000264      0.035369      0.093268
O	      8.21432      8.64930    -10.29750         0.005939     -0.027719      0.039133
O	      8.28960      2.22397     -4.27527         0.007175     -0.014813     -0.052774
O	     10.13485      4.48380     -8.19892         0.021807      0.038288      0.032877
O	     12.36443      6.60044    -12.21062        -0.012038      0.042184      0.040022
O	      6.14656      8.87974      0.15304         0.009299      0.017382      0.004393
O	      8.16710     11.05620     -3.92103         0.009674      0.041891      0.088727
O	     10.26496     13.00452     -8.11373         0.000711     -0.018111      0.045017
O	     10.20244      6.58837     -2.23459         0.009540      0.007679     -0.046962
O	     12.31021      8.88815     -6.00275         0.012598      0.038198      0.110903
O	     14.38084     10.98639    -10.08541         0.001206      0.014349     -0.006882
