# total energy = -888.25081942 eV
 
CRYSTAL
PRIMVEC
4.079882 8.650489 4.195730 
8.179703 -4.352710 -4.187648 
6.146881 6.372872 -0.013657 
PRIMCOORD
132 1
Li	      4.10516      2.28093     -2.10552         0.014301     -0.002248      0.006914
Li	      6.26692      4.30701     -6.33673         0.001944      0.001135      0.003631
Li	      8.25088      6.28181    -10.32122         0.008238     -0.000488     -0.023473
Li	      8.18667      0.09458     -4.19360         0.015130     -0.008381      0.021898
Li	     12.31406      4.13235    -12.42948        -0.001749     -0.005889     -0.019956
Li	      6.13039      6.66720     -0.00039         0.003339      0.020911     -0.001660
Li	     10.27981     10.58820     -8.17452        -0.001057     -0.030819     -0.015233
Li	     10.21454      4.42832     -2.09260        -0.012969     -0.002141      0.002196
Li	      8.14487      8.67108      0.01145        -0.011658      0.016196      0.012146
Li	     12.28303     12.81772     -8.20954         0.006924     -0.007767     -0.025827
Li	     12.23762      6.46429     -2.07710        -0.018607     -0.004501      0.003833
Li	     16.29372     10.52845    -10.32005        -0.001632     -0.012150     -0.025381
Li	      6.11942      4.29033     -2.09533        -0.005846     -0.005723      0.010744
Li	     10.23668      8.52065    -10.28360         0.012615     -0.013191     -0.002432
Li	     10.23919      2.13226     -4.16241        -0.007648      0.033414      0.020832
Li	     14.34906      6.46017    -12.33499         0.011350      0.004013     -0.011849
Li	      6.07006      2.13631     -4.14654         0.006174      0.002608      0.022144
Li	     10.23517      6.22044    -12.35830         0.005181      0.000633     -0.015762
Li	     10.18866     -0.04088     -6.25306         0.001945      0.001583      0.020786
Li	     14.30641      4.07279    -14.48177         0.003012      0.010337     -0.010576
Li	      8.10848      6.52270     -2.07048         0.002706      0.024207      0.007927
Li	     12.30688     10.46431    -10.23687        -0.006530      0.001470     -0.000350
Li	     12.20895      4.36399     -4.17621        -0.011796      0.018563      0.000956
Li	     16.31983      8.35511    -12.26692        -0.008491      0.002533     -0.016669
Mn	      8.15011      4.22355     -4.15523        -0.008597     -0.039500      0.050467
Mn	     10.18786      6.38411     -8.18664         0.029444     -0.018426      0.012831
Mn	     12.27347      8.47403    -12.31817         0.000495      0.028201     -0.027868
Mn	     12.22850      2.07454     -6.26605         0.015638     -0.010806      0.014331
Mn	      6.09228      8.50301     -6.12346         0.021583      0.006325      0.018400
Mn	      8.16420     10.64222    -10.26009        -0.002624      0.029431     -0.015658
Mn	     10.15817      8.60613     -2.07670        -0.007327     -0.026208      0.027496
Mn	      8.17721      2.10256    -10.26431         0.009969     -0.031118      0.007277
Mn	     14.27614     12.83415    -10.26363         0.005226      0.015923     -0.018451
Mn	     14.25085      6.41556     -4.16103         0.003131     -0.010226      0.005944
Mn	     12.21844     -0.04786    -12.39300        -0.012475     -0.029864      0.009288
Mn	     18.36612     10.63058    -12.35146        -0.001673      0.012107     -0.013499
Mn	      2.05448      2.14823      0.02077         0.002844     -0.004493      0.005034
Mn	      3.97648      4.35282     -4.29529         0.000989     -0.008043      0.019523
Mn	      6.18085      6.39324     -8.18629        -0.010330      0.017379     -0.021561
Mn	      6.13184     -0.00809     -2.07970         0.019814      0.018932      0.001592
Mn	      8.17487      2.09817     -6.36491         0.004615      0.000425      0.044314
Mn	     10.29802      4.16947    -10.19338        -0.000671     -0.005627     -0.037545
Mn	      4.07949      6.48691      2.12495        -0.015797     -0.013553      0.003770
Mn	      6.03930      8.71866     -2.28402        -0.020835      0.012255     -0.011531
Mn	      8.22233     10.63555     -5.93520         0.008495     -0.008312     -0.011544
Mn	      8.16565      4.28544      0.05224        -0.002905      0.001926     -0.010868
Mn	     10.13597      6.50932     -4.33679        -0.018495      0.026849      0.008678
Mn	     12.40276      8.45170     -8.08411        -0.000327     -0.008573     -0.014174
Mn	      2.06455      0.05491     -2.10090         0.002263     -0.018349      0.006670
Mn	      8.20351     10.77276     -2.09624        -0.036184      0.015004     -0.004895
Mn	      6.22025      4.24371    -10.28964        -0.017023      0.006209     -0.048625
Mn	      6.14480     -2.13621     -4.19983        -0.007351      0.000333      0.013281
Mn	     12.29052      8.57818     -4.21082        -0.014833      0.013134      0.004209
Mn	     10.29235      2.10107    -12.39407        -0.008181     -0.008309     -0.037595
Mn	      4.13527      4.36516      0.00538        -0.007954      0.004464      0.018291
Mn	      6.16147      6.39837     -4.21460        -0.014929      0.025206      0.017008
Mn	      8.23144      8.54832     -8.21830         0.019464      0.023308     -0.003821
Mn	      8.20192      2.15976     -2.12030         0.017442     -0.009910      0.005829
Mn	     10.25922      4.22405     -6.31381         0.001150      0.009154     -0.004718
Mn	     12.34516      6.37101    -10.29029         0.013279      0.006987     -0.025647
O	      4.18777     -0.22177     -2.09543         0.013614     -0.018432      0.013476
O	      6.09969      1.89158     -6.15091        -0.022991      0.003268     -0.000732
O	      8.19334      4.09031    -10.39909        -0.042899     -0.019744      0.010853
O	      8.25336     -2.42169     -4.18710         0.047678     -0.015005      0.005446
O	     10.14932     -0.32735     -8.24382        -0.041975     -0.016364      0.000142
O	     12.25056      1.94414    -12.52739        -0.043119     -0.014429      0.009224
O	      6.22296      4.05331      0.02799         0.035914     -0.037451      0.008277
O	      8.10170      6.13376     -4.06121        -0.069583     -0.025720     -0.004416
O	     10.16501      8.37860     -8.28747        -0.069581     -0.034696      0.011921
O	     10.29101      1.90009     -2.08557         0.096579     -0.007081      0.021175
O	     12.18676      3.98369     -6.17399        -0.092649     -0.036490     -0.002656
O	     14.27623      6.08749    -10.37227        -0.068720     -0.046057      0.010562
O	      6.06976      1.97450     -1.97936        -0.089533     -0.011556      0.017508
O	      8.23860      4.00584     -6.10861         0.015210     -0.005558     -0.019229
O	     10.28669      6.16221    -10.22601        -0.008440     -0.013557      0.014384
O	     10.15943     -0.22564     -4.05231        -0.030183     -0.017391     -0.009775
O	     12.38689      1.90374     -8.18335         0.032330      0.054570      0.033768
O	     14.36883      3.99751    -12.35752         0.003171     -0.034254      0.010504
O	      8.07525      6.27896      0.12362        -0.040501     -0.004507     -0.017549
O	     10.35175      8.43492     -3.98813         0.050997      0.079424      0.030906
O	     12.38680     10.58390     -8.10179         0.045827      0.052770      0.023181
O	     12.14488      4.10682     -1.94906        -0.021776      0.007741      0.009947
O	     14.45723      6.29348     -6.07672         0.059107      0.096551      0.045522
O	     16.53945      8.42171    -10.20232         0.045452      0.062203      0.023334
O	      4.02251      2.28977     -4.24649        -0.030239     -0.042010     -0.013061
O	      6.05399      4.49403     -8.31835         0.002112      0.005901     -0.003185
O	      8.27671      6.55377    -12.50408         0.033990     -0.001359      0.006470
O	      8.12550      0.11523     -6.33971         0.002819      0.036632     -0.009669
O	     10.15058      2.28903    -10.45029        -0.011076     -0.009253     -0.017259
O	     12.35454      4.39316    -14.61618         0.047148     -0.006782      0.002228
O	      6.04262      6.57320     -2.19367        -0.048042     -0.066162     -0.025877
O	      8.01534      8.67439     -6.31759        -0.049061     -0.083402     -0.047330
O	     10.33570     10.88347    -10.39784         0.047951      0.004831      0.002532
O	     10.15471      4.40119     -4.27979        -0.028769     -0.046452     -0.041108
O	     12.12303      6.51872     -8.37614        -0.055411     -0.072855     -0.023283
O	     14.34527      8.66668    -12.55691        -0.019402     -0.007710      0.020127
O	      4.05316      2.37483      0.03632         0.010558     -0.008659      0.006680
O	      6.15829      4.39579     -4.17561         0.033592      0.012436     -0.012400
O	      8.22556      6.64608     -8.35212         0.026866      0.014765     -0.000080
O	      8.08363      0.20043     -2.07440        -0.046461     -0.014675     -0.003727
O	     10.26173      2.23122     -6.16548         0.047388      0.016287     -0.010855
O	     12.30934      4.45136    -10.45139         0.044001      0.000959      0.002388
O	      6.03639      6.72978      2.13553        -0.064720      0.018657      0.000299
O	      8.20176      8.78876     -2.00540         0.072687      0.033225     -0.010933
O	     10.32522     10.99886     -6.20081         0.081015      0.035570      0.000321
O	     10.10803      4.51361      0.04494        -0.041397      0.004907      0.004638
O	     12.28411      6.58466     -4.08774         0.078059      0.042003     -0.008092
O	     14.41700      8.86908     -8.21260         0.095165      0.048036      0.001192
O	      2.06109      2.00960     -2.17449        -0.003144      0.028598     -0.052713
O	      4.24540      4.03874     -6.30391        -0.002865     -0.018424     -0.064433
O	      6.19294      6.23094    -10.36180         0.008371     -0.038484      0.018074
O	      6.14779     -0.17436     -4.28775        -0.005233      0.024059     -0.047174
O	      8.23788      1.82739     -8.37870         0.005562     -0.008721     -0.051928
O	     10.26952      4.08714    -12.46605         0.007886     -0.046378      0.037443
O	      4.12726      6.31270     -0.08470        -0.016353      0.025449     -0.056620
O	      6.17398      8.28148     -4.26072        -0.008684     -0.070956     -0.103080
O	      8.21996     10.54013     -8.28861        -0.001116     -0.047809     -0.002026
O	      8.19624      4.10764     -2.19240        -0.017847      0.017464     -0.064796
O	     10.23938      6.11992     -6.31971         0.001488     -0.053128     -0.096237
O	     12.22882      8.34412    -10.34105         0.010509     -0.036848     -0.000657
O	      4.06494      4.44930     -1.97952        -0.003720      0.051457      0.013513
O	      6.09639      6.55808     -6.13326        -0.002506     -0.003319      0.030210
O	      8.16621      8.69337    -10.20289         0.017844     -0.024407      0.058666
O	      8.15880      2.23867     -4.10601        -0.005127      0.032087     -0.044072
O	     10.17731      4.48265     -8.18868        -0.001355      0.016332      0.045945
O	     12.27315      6.54038    -12.27513         0.004217      0.008408      0.044266
O	      6.07956      8.78877      0.12540        -0.007400      0.053388      0.008172
O	      8.12784     11.05392     -3.96591        -0.007986      0.052214      0.095499
O	     10.20501     13.03575     -8.07406         0.015263     -0.011753      0.070810
O	     10.16213      6.61931     -1.96997         0.007259      0.051116      0.003047
O	     12.23477      8.85276     -6.08411        -0.006951      0.044041      0.068169
O	     14.27433     10.91882    -10.17210         0.006979     -0.024050      0.073060
