# total energy = -888.38779863 eV
 
CRYSTAL
PRIMVEC
4.117485 8.658467 4.154188 
8.206468 -4.323234 -4.166440 
6.206714 6.410184 -0.013795 
PRIMCOORD
132 1
Li	      4.05255      2.39226     -2.12123         0.019304     -0.019050      0.002788
Li	      8.31018      6.44219    -10.26327         0.001737      0.004360     -0.009008
Li	      8.22592      0.03781     -4.22975         0.005945     -0.002282     -0.004876
Li	     12.36825      4.20362    -12.37240        -0.005991      0.003406      0.001724
Li	      6.19484      6.58105     -0.07820         0.006740     -0.019661      0.010324
Li	     10.40429     10.50602     -8.15543        -0.015396      0.028938     -0.006899
Li	     10.31778      4.43556     -2.22121         0.004924     -0.011913     -0.001633
Li	     14.50465      8.42507    -10.27435        -0.016689      0.006766     -0.008458
Li	      4.09823      0.09699     -4.19562         0.003976     -0.027141      0.008807
Li	     12.36912     12.83020     -8.14067         0.011848      0.028075     -0.003141
Li	      8.28593     -1.99320     -6.28110        -0.017123     -0.029126      0.001622
Li	     16.46098     10.63795    -10.24254         0.005277      0.023340     -0.009117
Li	      6.17043      4.35606     -2.08251         0.003191     -0.027480      0.002966
Li	     10.33107      8.47466    -10.25251        -0.005680      0.013254     -0.009418
Li	     10.25932      1.91726     -4.20406        -0.003612      0.018762      0.026105
Li	     14.43749      6.39273    -12.31972         0.000831      0.009815     -0.000448
Li	      6.07567      2.30871     -4.18789         0.019876     -0.009322      0.009257
Li	      8.14929      4.35662     -8.07222        -0.003906     -0.000836     -0.005528
Li	     10.25595      6.28683    -12.29543        -0.004752      0.006002      0.004462
Li	     14.37691      4.17634    -14.37815         0.004611      0.005284      0.011243
Li	      8.15333      6.66833     -2.16265         0.015797     -0.013359      0.008721
Li	     12.37769     10.53769    -10.22198        -0.002354      0.017391     -0.009487
Li	     12.28800      4.43441     -4.18291        -0.003654      0.001925      0.011715
Li	     16.49733      8.41592    -12.28750        -0.007969     -0.002920      0.003130
Mn	      8.13563      4.25061     -4.19345         0.006227     -0.041140      0.016334
Mn	     10.29100      6.46541     -8.13416         0.039268     -0.032460     -0.028087
Mn	     12.35753      8.52145    -12.30725        -0.001676      0.020382     -0.006413
Mn	     12.26016      2.11787     -6.23203        -0.019243     -0.001808      0.021431
Mn	     14.37638      4.29190    -10.22910         0.018253     -0.010931     -0.016466
Mn	      8.26159     10.65027    -10.19542        -0.013974     -0.001216     -0.000970
Mn	     10.21268      8.63881     -2.13183         0.007768      0.001012      0.006060
Mn	      8.23074      2.14425    -10.20517         0.023259     -0.034307     -0.024641
Mn	     14.39945     12.84287    -10.24519         0.007338     -0.008208      0.013603
Mn	     14.35209      6.48832     -4.20869        -0.004541     -0.005775      0.014889
Mn	     12.32161     -0.00903    -12.28490        -0.038763     -0.041060      0.018118
Mn	     14.41508      2.13858    -16.47261        -0.003421      0.006595     -0.005142
Mn	      2.04902      2.20636     -0.03062        -0.000008     -0.003324      0.012281
Mn	      4.00776      4.39284     -4.25583         0.033346     -0.002724      0.035484
Mn	      6.19261      6.43539     -8.08221         0.004292     -0.016644     -0.031126
Mn	      6.12809     -0.00021     -2.08571         0.008488      0.010398      0.018888
Mn	      8.23475      2.10808     -6.27930         0.010868      0.023367      0.020685
Mn	     10.45093      4.17158    -10.09416        -0.004497     -0.004277     -0.013191
Mn	      4.12188      6.47412      2.06837         0.002689      0.009376     -0.005512
Mn	      6.09178      8.72582     -2.21296         0.025320     -0.020121      0.031077
Mn	      8.39822     10.64641     -5.92166        -0.014491      0.008969     -0.025564
Mn	      8.25201      4.26635     -0.00596        -0.004291      0.004091      0.001048
Mn	     10.20480      6.56096     -4.28529         0.016721     -0.003709      0.016204
Mn	     12.51781      8.45733     -7.96744        -0.038437      0.018455     -0.042665
Mn	      6.17552      8.63076      1.99371        -0.002300     -0.046326      0.016556
Mn	      8.27482     10.77832     -2.12665        -0.009556      0.033466     -0.047710
Mn	      6.23787      4.32384    -10.23975         0.008517      0.002544     -0.019907
Mn	     10.27726      6.50912     -0.07577         0.011672     -0.026558      0.020463
Mn	      8.30265     -0.01825     -8.32494        -0.004629      0.016233     -0.049899
Mn	     10.33627      2.11029    -12.32681        -0.000673     -0.005700      0.003167
Mn	      4.15690      4.34616     -0.03329        -0.020661      0.000993      0.007802
Mn	      6.15599      6.43731     -4.20301         0.000675     -0.000404     -0.000937
Mn	      8.30831      8.55808     -8.15402         0.024257      0.010684      0.003718
Mn	      8.24975      2.13078     -2.12228        -0.002963     -0.000593      0.011150
Mn	     10.35631      4.30278     -6.22158         0.004143     -0.005371     -0.009610
Mn	     12.40849      6.43357    -10.25468        -0.010764     -0.002709     -0.009411
O	      4.08050     -0.22987     -2.10298         0.003259      0.007371      0.000458
O	      6.07622      1.86888     -6.12807        -0.047788     -0.068458     -0.016829
O	      8.20488      4.14572    -10.20765        -0.039346     -0.032103     -0.004538
O	      8.24266     -2.31004     -4.21056         0.013351     -0.040930      0.006637
O	     10.23387     -0.28947     -8.24476        -0.032228     -0.061903     -0.039804
O	     12.26651      1.98200    -12.40043        -0.078199     -0.012332      0.010872
O	      6.28471      4.09168     -0.00193         0.058835      0.004306      0.008251
O	      8.06654      6.16259     -4.07690        -0.070996      0.006604     -0.015648
O	     10.25938      8.42756     -8.22835        -0.076228     -0.027589      0.004231
O	     10.31511      1.92718     -2.08611         0.050237      0.014053      0.005139
O	     12.25255      4.03573     -6.14898        -0.088663     -0.054442      0.003093
O	     14.36178      6.26875    -10.33167        -0.087917     -0.049588      0.008321
O	      6.15445      1.98223     -1.99817        -0.023161     -0.010227      0.012724
O	      8.37468      4.04620     -6.15059         0.041792     -0.021587     -0.026940
O	     10.39064      6.31653    -10.14708         0.016578      0.094824      0.036818
O	     10.19421     -0.17353     -3.96250        -0.026351     -0.026244      0.015760
O	     12.40038      1.98693     -8.15458         0.041033      0.012898      0.043120
O	     14.48190      4.11348    -12.25732         0.019109     -0.002005      0.028947
O	      8.21486      6.26900      0.06362        -0.000617     -0.001553      0.011934
O	     10.43655      8.47439     -4.05776         0.040632      0.013860      0.031884
O	     12.45441     10.64473     -8.05838         0.027545      0.047507      0.046884
O	     12.37041      4.13475     -2.12434         0.013475      0.013793     -0.022647
O	     14.51979      6.31660     -6.15055         0.041710     -0.008544      0.048663
O	     16.57931      8.51098    -10.17208         0.013306      0.072382      0.032633
O	      4.02362      2.28717     -4.23338        -0.041947     -0.018761     -0.013599
O	      6.12944      4.51529     -8.28223        -0.024935     -0.007251     -0.011327
O	      8.20698      6.61331    -12.34008        -0.006598      0.004456      0.033307
O	      8.07202      0.11486     -6.29479        -0.036409      0.017400     -0.016006
O	     10.15979      2.24369    -10.41931        -0.048396     -0.086281     -0.069535
O	     12.40903      4.45866    -14.47429         0.041754      0.046048     -0.001285
O	      6.08474      6.64754     -2.18767        -0.034164     -0.007355     -0.039937
O	      8.09957      8.69913     -6.25914        -0.052927     -0.075218     -0.058068
O	     10.41337     10.90397    -10.35715         0.016119      0.024284     -0.021321
O	     10.28101      4.57558     -4.24741         0.034590      0.023408     -0.044007
O	     12.22004      6.53282     -8.34382        -0.080170     -0.075000     -0.064209
O	     14.53905      8.72406    -12.38025         0.008061      0.033308      0.020581
O	      4.00947      2.35319     -0.01439        -0.033657      0.023433     -0.007554
O	      6.03561      4.46264     -4.09499        -0.070518      0.048848     -0.003135
O	      8.34406      6.63829     -8.25654         0.043385      0.029260      0.023074
O	      8.11813      0.18197     -2.05857        -0.038268      0.056917      0.008658
O	     10.36033      2.35603     -6.11707         0.080836      0.040504     -0.016497
O	     12.45179      4.53947    -10.39014         0.089910      0.068644      0.015758
O	      6.09796      6.67944      2.06389        -0.059007      0.013972     -0.006589
O	      8.28750      8.78374     -2.04968         0.099577      0.008504     -0.000469
O	     10.42308     11.07752     -6.21482         0.060227      0.055954      0.008853
O	     10.30205      4.56132     -0.03212        -0.008283      0.022860      0.005365
O	     12.43494      6.67875     -4.11109         0.089658      0.023728     -0.009453
O	     14.52414      8.86361     -8.29585         0.072744      0.055875      0.013115
O	      2.07838      1.88835     -2.22623        -0.009275      0.012077     -0.074586
O	      4.15068      4.02049     -6.25873         0.003339     -0.046524     -0.090121
O	      6.21274      6.32235    -10.15186         0.005249     -0.020219      0.062549
O	      6.13731     -0.22829     -4.29462         0.019005     -0.033281     -0.053438
O	      8.29807      1.91544     -8.27397         0.005424     -0.040767     -0.017334
O	     10.30492      4.10289    -12.41665         0.009039     -0.050023     -0.020572
O	      4.15776      6.29364     -0.09628        -0.004627      0.012079     -0.084454
O	      6.22896      8.34336     -4.17824        -0.014603     -0.038473     -0.026447
O	      8.32038     10.54611     -8.23922        -0.000254     -0.036828     -0.029503
O	      8.24298      4.05752     -2.21392        -0.003456     -0.025608     -0.021199
O	     10.36477      6.22357     -6.23865        -0.000768     -0.064223     -0.023761
O	     12.40506      8.41942    -10.33469        -0.009802     -0.046217     -0.020471
O	      4.18398      4.47298     -1.96806        -0.004763      0.056468      0.022493
O	      6.07905      6.71264     -6.10557         0.017920      0.028037      0.052086
O	      8.23506      8.69439    -10.13688        -0.004154     -0.019031      0.044438
O	      8.18028      2.24289     -4.21743        -0.004587      0.002160     -0.077172
O	     10.17212      4.55194     -8.11085         0.007968      0.056758      0.106467
O	     12.31481      6.57957    -12.24630         0.002971     -0.006152      0.057983
O	      6.15330      8.80558     -0.13737        -0.007656      0.036767     -0.047304
O	      8.24959     11.07378     -3.98089         0.004515      0.040320      0.095717
O	     10.32217     13.18177     -8.04889        -0.011365      0.006742      0.055308
O	     10.22190      6.64679     -2.18632         0.006849      0.046747     -0.054583
O	     12.32491      8.91117     -6.02768         0.013264      0.061857      0.119399
O	     14.40934     10.90179    -10.16404        -0.006323      0.014275      0.062265
