# total energy = -888.29798974 eV
 
CRYSTAL
PRIMVEC
4.067085 8.678124 4.218795 
8.143986 -4.364851 -4.204556 
6.127121 6.366079 -0.013747 
PRIMCOORD
132 1
Li	      4.05313      2.34869     -2.11870         0.025935      0.031324      0.015303
Li	      8.15167      0.15047     -4.20633         0.016007      0.007971      0.000468
Li	     12.27501      4.06946    -12.40859        -0.007794     -0.014702     -0.006663
Li	      6.11155      6.64278     -0.03404         0.004578     -0.004686      0.014906
Li	      8.29581      8.66067     -4.22246        -0.017837      0.012957     -0.008547
Li	     10.25785     10.60600     -8.24345         0.001713      0.004129     -0.013602
Li	     10.20374      4.45905     -2.07077         0.012175      0.001674      0.020851
Li	     14.29624      8.46029    -10.32490         0.002470      0.004792     -0.020691
Li	      8.11597      8.68629      0.00932         0.008207     -0.007450      0.015851
Li	      8.20289      4.30958    -12.34462         0.000877      0.010836     -0.020095
Li	      8.16803     -2.16547     -6.26163        -0.006335      0.015465      0.041488
Li	     16.29505     10.59916    -10.27948         0.005845     -0.008393     -0.011607
Li	      6.07623      4.38628     -2.08826         0.002022      0.005988      0.020225
Li	     10.15492      8.35218    -10.31285         0.003427      0.006080     -0.029810
Li	     10.16768      2.20656     -4.18373         0.009664     -0.014910      0.014971
Li	     14.26238      6.29782    -12.44592        -0.003788      0.010234     -0.023468
Li	      6.05640      2.24472     -4.19029        -0.001521      0.026738      0.023891
Li	     10.16463      6.18896    -12.28310        -0.003694     -0.005089      0.002673
Li	     10.11022      0.08683     -6.29492         0.003093      0.036582      0.016712
Li	     14.29750      3.94904    -14.43010        -0.003821     -0.020440     -0.016279
Li	      8.09445      6.45983     -2.02944        -0.007814      0.002279      0.026340
Li	     12.21147     10.46879    -10.26395        -0.008583      0.003009     -0.019905
Li	     12.18591      4.34379     -4.17972        -0.006685     -0.000317      0.015300
Li	     16.31506      8.43808    -12.39964        -0.011900     -0.000869     -0.011815
Mn	      8.10753      4.29886     -4.16503        -0.013767     -0.011676      0.007194
Mn	     10.16237      6.42726     -8.17574        -0.014197     -0.051982     -0.011539
Mn	     12.18805      8.46779    -12.38274        -0.011254      0.052454      0.006539
Mn	     12.16323      2.08845     -6.27161         0.015779     -0.008366      0.015799
Mn	     14.23719      4.25921    -10.31750         0.006226     -0.056205     -0.007835
Mn	     16.27183      6.33472    -14.47054         0.006079      0.001511     -0.041302
Mn	     10.15286      8.57441     -2.01819        -0.015264     -0.020701      0.050149
Mn	     12.16591     10.66801     -6.09772         0.037639      0.006894      0.000656
Mn	     14.22252     12.76804    -10.26113         0.015073     -0.045770     -0.001626
Mn	     14.20792      6.40886     -4.16873         0.030306      0.028526      0.002129
Mn	      8.11795     12.87062     -3.99350         0.060606     -0.020207      0.015064
Mn	      6.14555      6.33393    -12.30737        -0.009695     -0.032398      0.037505
Mn	      2.04766      2.14025      0.06234         0.011035      0.032973      0.010639
Mn	      3.97035      4.40585     -4.38415        -0.006947      0.026267      0.007375
Mn	      6.26879      6.27879     -8.07297         0.011030     -0.024667     -0.012098
Mn	      6.07959      0.00681     -2.08933         0.006126      0.000456      0.005388
Mn	      8.04682      2.21576     -6.48214        -0.015377      0.039325     -0.006987
Mn	     10.23235      4.11681    -10.13091         0.007998     -0.030323     -0.001701
Mn	      4.09101      6.50848      2.12938         0.000037     -0.018936      0.005135
Mn	      5.99218      8.70575     -2.21663        -0.006414      0.013482     -0.006781
Mn	      8.18982     10.75713     -6.07813         0.004555      0.002717     -0.017766
Mn	      8.14291      4.30413      0.02548        -0.025217     -0.015520      0.007448
Mn	     10.17656      6.44339     -4.27754        -0.008511      0.002435      0.041093
Mn	     12.29495      8.45589     -8.08307         0.007221     -0.016973     -0.032592
Mn	      2.07173      0.01433     -2.11920         0.012798     -0.035144      0.066602
Mn	      8.17094     10.76207     -2.08680        -0.018582      0.033706     -0.007687
Mn	      6.20171      4.22753    -10.31567        -0.008191      0.018898     -0.001033
Mn	      6.15095     -2.15995     -4.17616         0.009871     -0.048186      0.027602
Mn	     12.23535      8.55173     -4.19469         0.005484      0.041587     -0.014231
Mn	     10.22867      1.99460    -12.42187         0.025170      0.002791      0.006587
Mn	      4.09058      4.37543      0.00486        -0.000687      0.023909     -0.002968
Mn	      6.15396      6.45305     -4.19975        -0.065550      0.024620     -0.023792
Mn	      8.23948      8.59558     -8.20896        -0.024325     -0.025677     -0.051231
Mn	      8.15906      2.22146     -2.10654        -0.002388      0.003926      0.018334
Mn	     10.21009      4.26523     -6.29656        -0.012217      0.034245     -0.038469
Mn	     12.28931      6.39811    -10.30270        -0.026862      0.006605     -0.042455
O	      4.04553     -0.26405     -2.12779        -0.073520      0.039523      0.000096
O	      6.02933      1.80775     -6.16049        -0.067640     -0.022205     -0.000953
O	      8.12136      3.93722    -10.39788        -0.070212     -0.028902      0.024048
O	      8.25899     -2.44438     -4.13192         0.022845      0.004067     -0.019973
O	     10.09181     -0.36323     -8.27997        -0.099216     -0.047412      0.011619
O	     12.16248      1.80999    -12.49262        -0.060819     -0.007556      0.010296
O	      6.17410      4.06677      0.00782         0.106720     -0.023706     -0.006519
O	      8.14836      6.23820     -4.03696        -0.003302     -0.022755     -0.011226
O	     10.19941      8.41963     -8.31952        -0.032002     -0.010201      0.024197
O	     10.28871      1.95799     -2.09098         0.033509     -0.014620     -0.001002
O	     12.13662      3.99322     -6.15422        -0.038158     -0.013994      0.004564
O	     14.27408      6.25277    -10.44721        -0.036178     -0.007701      0.000129
O	      5.97716      1.96660     -1.97811        -0.027247     -0.029705     -0.019209
O	      8.28675      4.15593     -6.06711         0.039422      0.064949      0.045063
O	     10.37139      6.25982    -10.21292         0.024119      0.077041      0.019009
O	     10.09803     -0.22535     -4.04275        -0.099090     -0.012376      0.007594
O	     12.36737      1.96482     -8.18973         0.069593      0.092110      0.034504
O	     14.37758      4.08190    -12.32624         0.082126      0.071303      0.030447
O	      8.04325      6.27474      0.16620        -0.035305      0.021369     -0.002155
O	     10.23681      8.35466     -3.97003        -0.006538     -0.028607     -0.023393
O	     12.27835     10.45237     -8.13745         0.008204     -0.023699      0.028517
O	     12.27952      4.16615     -1.97322         0.066708      0.023040     -0.028683
O	     14.37189      6.26474     -6.07156         0.023121      0.044392      0.039034
O	     16.33042      8.35127    -10.24534        -0.008015     -0.002985      0.021511
O	      3.99033      2.25376     -4.28710        -0.093959     -0.081447     -0.007607
O	      5.97649      4.33483     -8.40841        -0.068968     -0.099822     -0.050065
O	      8.25222      6.51891    -12.59493         0.080367     -0.000830     -0.063698
O	      8.09093      0.04378     -6.37883        -0.021376     -0.044880     -0.031597
O	     10.01998      2.15142    -10.51473        -0.040966     -0.093404     -0.054537
O	     12.29021      4.38435    -14.60132         0.056753      0.012526      0.000910
O	      6.04957      6.59532     -2.15331        -0.008722     -0.007789     -0.011192
O	      8.08003      8.84802     -6.22644         0.009677     -0.009792     -0.019710
O	     10.28048     10.90014    -10.41868         0.053886      0.010686      0.037898
O	     10.14059      4.43575     -4.22684         0.003457      0.035610      0.010061
O	     12.15867      6.57627     -8.36940        -0.014908      0.009844     -0.012104
O	     14.33994      8.69572    -12.52907         0.059016     -0.003522     -0.001942
O	      3.97782      2.38442      0.05483        -0.051159     -0.031141     -0.012585
O	      6.16196      4.47818     -4.10364         0.068660      0.012942     -0.004629
O	      8.27308      6.72155     -8.21289         0.089998      0.054246     -0.000927
O	      8.05367      0.23249     -2.08043        -0.052277     -0.012209      0.003980
O	     10.20379      2.26875     -6.19825         0.065148      0.008548     -0.012483
O	     12.32351      4.49139    -10.42276         0.074813      0.038297     -0.001251
O	      6.03088      6.73627      2.13829        -0.051634      0.078334      0.004916
O	      8.16361      8.75768     -2.05733         0.045101     -0.009581      0.000174
O	     10.19095     10.98782     -6.27072         0.025111     -0.005881      0.000558
O	     10.12271      4.51625      0.03927        -0.100412      0.026252      0.000172
O	     12.22329      6.55980     -4.05682         0.046901     -0.001118      0.016758
O	     14.30011      8.76219     -8.33802         0.024545      0.020075      0.007295
O	      2.07600      1.94467     -2.19025        -0.013600     -0.035942     -0.065391
O	      4.13432      3.97222     -6.35076        -0.010888     -0.066006     -0.093664
O	      6.08165      6.19114    -10.34313        -0.001278     -0.042704     -0.013461
O	      6.12531     -0.19702     -4.26778        -0.019832      0.005330     -0.051069
O	      8.16100      1.76148     -8.45146        -0.004403     -0.058266     -0.091723
O	     10.22510      3.98973    -12.51866         0.005319     -0.021506     -0.025485
O	      4.09569      6.32567     -0.08003        -0.008773      0.074610     -0.060424
O	      6.27602      8.36990     -4.22003        -0.014859     -0.010546     -0.070911
O	      8.20537     10.59690     -8.30216        -0.015937     -0.034746      0.028832
O	      8.16618      4.17873     -2.16989        -0.010341      0.040798     -0.071169
O	     10.26151      6.16249     -6.29415         0.005565     -0.023501     -0.046294
O	     12.27152      8.36437    -10.38595         0.004652     -0.050809      0.040100
O	      4.00849      4.46470     -1.96289         0.023456      0.054386     -0.025336
O	      6.08939      6.72373     -6.08386         0.002955      0.039241      0.088831
O	      8.14143      8.77021    -10.16999        -0.009063     -0.021791      0.083285
O	      8.09729      2.32592     -4.06365         0.007541      0.031598      0.001185
O	     10.13005      4.53206     -8.15890         0.003072      0.027166      0.093457
O	     12.18536      6.52794    -12.30802         0.027357     -0.028651      0.061260
O	      6.07140      8.78749      0.13318         0.012877      0.062124      0.025620
O	      8.11380     10.93584     -3.99375        -0.004439     -0.002637      0.033328
O	     10.20444     13.08131     -8.07947         0.005318     -0.044734      0.048597
O	     10.16341      6.58902     -1.91327         0.001931      0.034507     -0.046363
O	     12.14225      8.76836     -6.07966        -0.000417      0.010608      0.059002
O	     14.23606     10.80916    -10.19233        -0.008215     -0.023641      0.056241
