# total energy = -895.25555625 eV
 
CRYSTAL
PRIMVEC
4.183230 8.683780 4.204414 
8.192210 -4.319956 -4.117927 
6.147490 6.407032 -0.013326 
PRIMCOORD
133 1
Li	      4.18714      2.23976     -2.11824         0.008661      0.003230     -0.009423
Li	     10.28882      2.23015     -8.25154         0.014426     -0.007446     -0.021048
Li	      6.26119      6.51167      0.01699         0.009450     -0.012774     -0.013641
Li	     12.36709      6.38479     -6.15295        -0.004085     -0.020917     -0.008788
Li	     14.45986      8.59578    -10.21376         0.001893     -0.025448     -0.019988
Li	      4.15983      0.13979     -4.09496         0.023716      0.013031     -0.015030
Li	      6.22879      2.28589     -8.17787         0.011411      0.037051     -0.004004
Li	     12.34295     12.91438     -8.11053         0.002376      0.010021     -0.013827
Li	     12.34076      6.41932     -1.96851         0.002754     -0.022097     -0.012807
Li	     10.26784      0.02704    -10.29951        -0.003712     -0.009909      0.001726
Li	     12.38363      2.35598    -14.32316        -0.009651      0.018490     -0.012525
Li	      6.17574      4.20625     -2.03387         0.004773      0.012868      0.016527
Li	      8.15062      6.26990     -6.12688         0.015365     -0.029998      0.003802
Li	     10.23476      8.57353    -10.16265         0.006248      0.015755      0.005487
Li	     10.24290      2.10657     -4.04179         0.012453     -0.026454      0.011783
Li	     12.31971      4.20620     -8.16490        -0.001207     -0.016860     -0.003381
Li	     14.30831      6.22716    -12.28025         0.012352     -0.019937      0.000865
Li	     10.22488      6.39551    -12.21655        -0.007353      0.028565      0.012960
Li	     10.20034     -0.05717     -6.06671        -0.006878     -0.010153     -0.007933
Li	      8.26298      6.51853     -1.99135         0.011720      0.027870      0.022673
Li	     10.20181      8.64379     -5.99629        -0.000005      0.016310      0.001263
Li	     12.26045     10.75060    -10.10587        -0.008729      0.005197      0.011234
Li	     12.24828      4.30798     -3.97723        -0.008039      0.007016      0.002749
Li	     14.39405      6.37784     -8.11742        -0.008061      0.000522      0.034345
Li	     16.44664      8.55064    -12.20352        -0.005711      0.001643     -0.007439
Mn	      8.20787      4.29537     -3.99463        -0.023820      0.000072      0.010551
Mn	     10.17421      6.37933     -8.15994         0.017997     -0.004726      0.015882
Mn	     12.32309      8.59952    -12.20557        -0.010736     -0.003503     -0.009298
Mn	      4.13114      6.42318     -1.96509        -0.002546     -0.018727     -0.003224
Mn	     14.34891      4.29943    -10.15142        -0.006197     -0.019504      0.008131
Mn	     16.39488      6.43786    -14.24674         0.002411      0.022032     -0.009475
Mn	      6.15928     -0.00918     -6.13411        -0.012581      0.013063      0.009657
Mn	     12.33555     10.79213     -6.07297         0.002994      0.017237     -0.002077
Mn	     10.22779      4.26904    -14.34065         0.012322      0.017551     -0.012776
Mn	     14.38510      6.50042     -4.03012         0.036910      0.009634     -0.016904
Mn	     16.46605      8.64700     -8.12316        -0.000004     -0.007852      0.035031
Mn	     18.48241     10.76719    -12.18679         0.003931      0.012698      0.003194
Mn	      1.95699      2.17247      0.15329         0.025149      0.020231     -0.012304
Mn	      4.23347      4.32112     -4.22444        -0.006013     -0.006021      0.012219
Mn	      6.15456      6.45721     -8.17504         0.018566      0.000430      0.003997
Mn	      6.28093     -0.01711     -2.09732        -0.000336     -0.016483      0.022200
Mn	      8.16817      2.14926     -6.09279        -0.013086      0.008448     -0.009952
Mn	     10.27591      4.26934    -10.26045        -0.007322      0.009290      0.006612
Mn	      4.12456      6.50674      2.15324        -0.006923      0.010844     -0.015739
Mn	      6.26693      8.65433     -1.99837        -0.005087     -0.009447      0.007326
Mn	      8.30654     10.74136     -6.07782        -0.013917     -0.019020      0.006167
Mn	      8.30954      4.36594      0.03852        -0.002529      0.006742      0.008142
Mn	     10.27383      6.46916     -4.01899        -0.008506      0.005970     -0.011962
Mn	     12.28859      8.63612     -8.13054        -0.008544      0.001863     -0.003540
Mn	      2.07809      0.01378     -2.07616        -0.009729     -0.006995     -0.005621
Mn	      4.18057      2.13013     -6.21960         0.005193      0.009494      0.005907
Mn	     10.37592     12.93794     -6.09767         0.013732      0.022437     -0.009231
Mn	     10.35964      6.51331      0.04249         0.021996      0.006954      0.000854
Mn	     12.41011      8.64543     -4.06462        -0.026320      0.012816     -0.013113
Mn	     10.31950      2.12427    -12.33497        -0.015476      0.012247     -0.010574
Mn	      4.15526      4.30809      0.02426        -0.033392      0.011528      0.009710
Mn	      6.25280      6.51965     -4.05581        -0.009422     -0.028131      0.003971
Mn	      8.22944      8.60704     -8.15726         0.007827     -0.014231     -0.030626
Mn	      8.27024      2.20026     -2.01476         0.003495     -0.044861     -0.002516
Mn	     10.26231      4.26363     -6.14900         0.006442      0.001980      0.008011
Mn	     12.37511      6.45325    -10.19727        -0.027900     -0.033821      0.001870
O	      4.04955     -0.17217     -2.03145        -0.074686      0.005131      0.003525
O	      6.24463      1.90121     -6.22060         0.033595     -0.021761     -0.006031
O	      8.11961      4.01080    -10.34056        -0.054279     -0.024750     -0.006992
O	      8.09777     -2.40626     -4.18365        -0.060194     -0.020611     -0.005900
O	     10.17875     -0.22722     -8.24505        -0.053485     -0.005980      0.008751
O	     12.26472      1.88458    -12.40199        -0.034909     -0.015217      0.002795
O	      6.13269      4.16893      0.09478        -0.060060      0.001318      0.006222
O	      8.21385      6.24738     -4.03858        -0.073846     -0.008196      0.006563
O	     10.17668      8.32727     -8.11098        -0.058985      0.021864      0.014552
O	     10.23181      1.97971     -1.95297        -0.078370      0.035290     -0.005656
O	     12.22934      4.11980     -6.06073        -0.045857      0.042923     -0.004688
O	     14.32080      6.29546    -10.17587        -0.059494      0.000669      0.025294
O	      6.26574      2.07966     -1.84221         0.011077      0.115821      0.011451
O	      8.31598      4.15532     -5.95311        -0.010556      0.029465      0.012029
O	     10.42753      6.33374    -10.14591         0.018738      0.066908     -0.000989
O	     10.43644     -0.11085     -4.06654         0.063007      0.078646     -0.055103
O	     12.42794      2.05733     -8.01062         0.015954      0.082861     -0.013119
O	     14.49015      4.16856    -12.10804         0.015564      0.050618      0.022188
O	      8.33978      6.39398      0.14260         0.008270      0.093283      0.000581
O	     10.49093      8.52246     -3.95692         0.021039      0.070408      0.003265
O	     12.52442     10.67875     -8.05289         0.016999      0.075056      0.028060
O	     12.51475      4.26354     -1.91262         0.014486      0.074823      0.009908
O	     14.36259      6.33567     -5.99903        -0.014197      0.059796      0.017125
O	     16.54804      8.44010    -10.15613        -0.020295      0.042869     -0.002394
O	      3.94064      2.24634     -4.18257        -0.015788     -0.059153      0.010388
O	      6.02205      4.40380     -8.36749        -0.019887     -0.057925     -0.018390
O	      8.13640      6.53237    -12.44311        -0.040265     -0.098979     -0.018273
O	      8.19254      0.13409     -6.32119        -0.009319     -0.025812     -0.020920
O	     10.12176      2.20588    -10.35189        -0.031522     -0.088408     -0.007181
O	     12.15180      4.34830    -14.52368        -0.034817     -0.085929     -0.024013
O	      6.29124      6.65966     -2.06048         0.016934     -0.082466     -0.040247
O	      8.17572      8.76278     -6.19101        -0.010696     -0.043479      0.003390
O	     10.23531     10.84661    -10.34619         0.013270     -0.073730     -0.034231
O	     10.21569      4.40246     -4.19777        -0.022619     -0.062748     -0.009731
O	     12.32962      6.58384     -8.23788        -0.006308     -0.080115     -0.017436
O	     14.32879      8.74418    -12.28942        -0.029912     -0.080613     -0.018939
O	      4.21292      2.34509      0.03820         0.046926      0.008523      0.024558
O	      6.28285      4.59432     -3.99119         0.051241      0.009776      0.015857
O	      8.17642      6.67806     -8.10273         0.020344      0.003743      0.020186
O	      8.30556      0.28909     -1.91760         0.041879      0.038327      0.021859
O	     10.16361      2.31210     -6.15555        -0.036294      0.010978      0.000251
O	     12.41476      4.55129    -10.15433         0.046927      0.023887      0.022228
O	      6.29217      6.71610      2.10271         0.062046      0.002659      0.005584
O	      8.38215      8.86651     -1.90522         0.043724     -0.017542      0.001438
O	     10.41497     10.95866     -5.99551         0.053361      0.010131     -0.017707
O	     10.38211      4.54796      0.14388         0.072641     -0.008344     -0.012148
O	     12.41522      6.65283     -4.03566         0.072086      0.022176     -0.017615
O	     14.50455      8.84260     -8.17190         0.044651      0.007674      0.002588
O	      2.07523      1.98121     -2.14585        -0.000206     -0.022030     -0.054197
O	      4.04738      4.04388     -6.28325         0.003310      0.021795     -0.088617
O	      6.11350      6.16575    -10.35470        -0.005311     -0.024007     -0.038483
O	      6.12644     -0.25668     -4.19413         0.007287     -0.030319     -0.040714
O	      8.25915      1.88182     -8.34775        -0.026425     -0.001349     -0.043707
O	     10.20285      4.08458    -12.38250         0.008476     -0.002669     -0.067672
O	      4.16574      6.28265     -0.01413         0.014359     -0.015852     -0.046623
O	      6.13696      8.48865     -4.07955         0.019337     -0.006045     -0.071132
O	      8.18039     10.57840     -8.08043         0.019166     -0.020504      0.056940
O	      8.18312      4.15880     -2.04638         0.012649     -0.027945     -0.076471
O	     10.27384      6.22764     -6.18968        -0.007543     -0.029072     -0.019543
O	     12.36311      8.46168    -10.23917         0.007511     -0.026510     -0.072867
O	      4.13875      4.42675     -1.94050         0.004588     -0.052501      0.052706
O	      6.22834      6.72268     -5.97476         0.010060      0.028844      0.048160
O	      8.26940      8.84422    -10.07920         0.014153     -0.009192      0.085855
O	      8.28215      2.38905     -3.92661        -0.008118      0.013323      0.042529
O	     10.31520      4.41863     -8.11195         0.003813     -0.027978      0.074096
O	     12.30900      6.67685    -12.15030         0.009577      0.010154      0.035877
O	      6.20075      8.84256      0.15357         0.008091      0.007860      0.047506
O	      8.24782     11.02608     -4.02456         0.015251      0.026268     -0.023830
O	     10.29940     13.14620     -8.05870         0.007106      0.014501      0.084281
O	     10.30029      6.72612     -1.91160         0.026341      0.021484      0.068240
O	     12.33021      8.79519     -6.03591        -0.001729      0.018619      0.086100
O	     14.39612     10.98307    -10.10317         0.007389      0.013447      0.042553
