# total energy = -900.39422376 eV
 
CRYSTAL
PRIMVEC
4.180299 8.646246 4.191039 
8.258982 -4.324570 -4.123840 
6.181386 6.397798 -0.013209 
PRIMCOORD
134 1
Li	      4.14482      2.04132     -2.10329        -0.005863     -0.018402     -0.017662
Li	      6.26985      4.28968     -6.19228        -0.000022     -0.002017     -0.011669
Li	     12.41191      4.16292    -12.38388        -0.002514     -0.029197     -0.009747
Li	      6.22613      6.53390     -0.00391        -0.008009      0.002980      0.005991
Li	      8.36290      8.61848     -4.12126        -0.013163     -0.009230     -0.004080
Li	     14.52101      8.65731    -10.32999         0.007736      0.004134     -0.001272
Li	      8.28111      8.51071      0.06225        -0.001678     -0.014211      0.003332
Li	     10.35111     10.65755     -4.02450        -0.012505     -0.035423      0.001880
Li	     12.38182     12.88186     -8.11164         0.001103     -0.009386      0.007566
Li	     12.36867      6.29531     -1.98670         0.007099     -0.016016      0.015728
Li	     14.42510      8.56959     -6.05450        -0.002574      0.017801      0.011162
Li	     16.53239     10.59662    -10.20793        -0.007654     -0.006895      0.014518
Li	      6.23782      4.39107     -2.04059         0.004299      0.017253     -0.002238
Li	      8.36938      6.58735     -6.15241         0.005513      0.025654     -0.012737
Li	     10.32627      8.49227    -10.24594         0.010500     -0.018155     -0.009096
Li	     10.42982      2.32094     -4.04984         0.002063      0.023792     -0.002920
Li	     12.37985      4.17416     -8.21420         0.019101     -0.025231     -0.009209
Li	     14.53144      6.57032    -12.31704         0.011332      0.025934     -0.005017
Li	      6.18949      2.09747     -4.06433        -0.010143      0.039443      0.014323
Li	      8.28333      4.33526     -8.18548         0.004751      0.041628     -0.001343
Li	     10.21837      6.39514    -12.25559        -0.001244      0.011271      0.000871
Li	     10.22025      0.01406     -6.07160         0.000937      0.016861      0.001396
Li	     12.29223      2.06929    -10.22958        -0.007085      0.006445      0.002073
Li	     14.46311      4.26498    -14.35717         0.005072      0.051833      0.018026
Li	     12.32327     10.69052    -10.16597        -0.004351     -0.000746     -0.000020
Li	     14.41857      6.41098     -8.10500         0.013464     -0.009125      0.004714
Mn	      8.28306      4.32341     -4.07692        -0.023142     -0.015904      0.010472
Mn	     10.36882      6.44279     -8.14679         0.011211      0.027976     -0.009276
Mn	      6.17016      2.16759     -0.00470         0.025820      0.010477     -0.014798
Mn	     12.36572      2.12586     -6.13880         0.037048      0.030405     -0.005534
Mn	     14.43211      4.27199    -10.28007         0.021544     -0.018012     -0.007136
Mn	     16.53901      6.42469    -14.33959        -0.010723     -0.013844      0.019336
Mn	      6.17426     -0.03295     -6.09397        -0.004605     -0.012259      0.014056
Mn	      8.19940      2.10382    -10.21566        -0.013052      0.031820      0.005799
Mn	     14.46614     12.81749    -10.16782         0.001908     -0.018580      0.002908
Mn	     14.39116      6.38120     -4.03187         0.016329     -0.026452      0.028528
Mn	      4.09648      4.22902     -8.16388        -0.007995     -0.011655      0.004673
Mn	     14.41129      2.06394    -16.37422        -0.030303      0.010137     -0.012899
Mn	      2.04482      2.14247      0.04710        -0.012231      0.003728     -0.005101
Mn	      4.06464      4.29956     -4.08747         0.001280      0.008551     -0.005030
Mn	      6.25805      6.45959     -8.23358        -0.005455      0.017115      0.003788
Mn	      6.25781     -0.00060     -2.06652        -0.006886      0.005177     -0.004081
Mn	      8.31591      2.10462     -6.16374        -0.012735     -0.024685      0.013427
Mn	     10.29570      4.25007    -10.23694        -0.019456     -0.002726     -0.032269
Mn	      4.10770      6.48670      2.16826        -0.003149     -0.001689      0.012182
Mn	      6.17406      8.59042     -1.97821         0.010979      0.002441     -0.006054
Mn	      8.40332     10.77385     -6.21866        -0.013930     -0.027953      0.014150
Mn	      8.40866      4.34001     -0.08741        -0.001284      0.001593      0.008623
Mn	     10.38912      6.42499     -4.05192         0.009255      0.004585      0.007406
Mn	     12.37193      8.56903     -8.08838         0.016266      0.003759     -0.005045
Mn	      6.21847      8.58594      2.11238         0.002643      0.014032      0.010987
Mn	      4.15973      2.11043     -6.15292        -0.013242     -0.015398     -0.011071
Mn	      6.24953      4.31390    -10.25418        -0.011628     -0.063604      0.014268
Mn	      6.25856     -2.12863     -4.11067        -0.009184     -0.031794      0.013624
Mn	     12.41697      8.60515     -4.05808         0.021425     -0.025849      0.006839
Mn	     14.46328     10.68199     -8.17895        -0.027974      0.008720      0.002421
Mn	      4.16942      4.30505     -0.01738        -0.012988      0.021117     -0.006024
Mn	      6.30502      6.43368     -4.09061        -0.004977      0.011825     -0.001748
Mn	      8.38122      8.60989     -8.22500         0.002840      0.021110      0.010435
Mn	      8.37151      2.16920     -2.08955        -0.004964      0.004826     -0.011330
Mn	     10.39594      4.26999     -6.18895         0.026258      0.021561     -0.007120
Mn	     12.44104      6.43136    -10.29962         0.018570     -0.007257     -0.023307
O	      3.99991     -0.21163     -2.00239        -0.054111      0.021615     -0.008152
O	      6.12099      1.96567     -6.13094        -0.059967     -0.036005      0.009907
O	      8.21230      4.05869    -10.24652        -0.021932     -0.011025     -0.003707
O	      8.22853     -2.38971     -4.08719        -0.032392     -0.027688      0.002366
O	     10.18949     -0.31058     -8.19105        -0.068005     -0.007244     -0.000770
O	     12.23223      1.91057    -12.30272        -0.035539      0.005951      0.006095
O	      6.12885      4.12147      0.00555        -0.033788     -0.030302      0.010160
O	      8.27585      6.28474     -4.17986         0.021778     -0.051491     -0.007063
O	     10.45834      8.34678     -8.23712         0.036477     -0.044406     -0.003555
O	     10.44900      1.93714     -2.08714         0.011733     -0.032144     -0.007628
O	     12.32410      4.03268     -6.22691        -0.037418     -0.031679     -0.010133
O	     14.39977      6.24739    -10.26850        -0.041908     -0.050468     -0.001637
O	      6.14608      1.99519     -1.96025         0.003525      0.044202      0.034189
O	      8.37367      4.13673     -6.11050         0.004193      0.039232     -0.003701
O	     10.51267      6.33081    -10.18705         0.007932      0.052484      0.021264
O	     10.50996     -0.13519     -4.03652         0.042968      0.066695      0.016844
O	     12.57780      2.01784     -8.13141         0.006558      0.055757      0.041834
O	     14.40570      4.07229    -12.26672         0.015758      0.006881     -0.011765
O	      8.41262      6.37650      0.23830         0.040772      0.089899     -0.001871
O	     10.42348      8.46915     -3.87942         0.011982      0.038177      0.031852
O	     12.52701     10.57703     -8.13474         0.043749      0.010504     -0.040571
O	     12.51541      4.16986     -1.78861         0.008688      0.028863      0.047799
O	     14.64570      6.30998     -6.03309         0.034606      0.055759      0.012062
O	     16.66236      8.50069    -10.03062         0.018097      0.070244      0.010752
O	      4.10958      2.23702     -4.19207         0.000990     -0.047789     -0.047828
O	      6.28743      4.50586     -8.25723        -0.003163     -0.001087     -0.023174
O	      8.16863      6.48049    -12.45350        -0.052953     -0.066862     -0.012171
O	      8.17601      0.11407     -6.27994        -0.034256     -0.039412     -0.009037
O	     10.22714      2.17542    -10.43504        -0.027713     -0.059664     -0.053165
O	     12.46050      4.41126    -14.46457        -0.002008     -0.048771     -0.042846
O	      6.04642      6.56246     -1.98376        -0.067878     -0.068819      0.002153
O	      8.11178      8.70835     -6.21780        -0.046101     -0.050042     -0.015002
O	     10.30681     10.87359    -10.39405        -0.026345     -0.028846     -0.039008
O	     10.21989      4.40939     -4.23912         0.000129     -0.039043     -0.035506
O	     12.38229      6.57625     -8.32478        -0.015619     -0.044156      0.000077
O	     14.29465      8.67920    -12.40720        -0.038299     -0.062210     -0.008410
O	      4.19687      2.30994      0.00350         0.047380      0.027038      0.012484
O	      6.31766      4.46883     -4.13231         0.060229      0.008903      0.005027
O	      8.43710      6.63675     -8.13825         0.038865     -0.011929     -0.016153
O	      8.40346      0.21363     -1.98468         0.062232      0.008251      0.000048
O	     10.42846      2.29666     -6.08712         0.054315      0.003509     -0.006202
O	     12.45902      4.44228    -10.27764         0.037288      0.021911      0.008808
O	      6.10510      6.63224      2.10274        -0.030331      0.037466      0.012837
O	      8.38359      8.83296     -1.98874         0.061033      0.034894      0.024891
O	     10.44357     11.04474     -5.97088         0.037257      0.067589      0.013756
O	     10.47568      4.59410      0.15698         0.054188      0.026377      0.021264
O	     12.38049      6.67464     -3.97474        -0.037671      0.024883      0.009249
O	     14.36811      8.72450     -8.17349        -0.027689      0.040654      0.027212
O	      2.04952      1.90679     -2.11947        -0.030892     -0.043998     -0.014775
O	      4.13676      4.10232     -6.20721        -0.005776     -0.040569     -0.040724
O	      6.12467      6.27380    -10.26057         0.021032     -0.015013     -0.043519
O	      6.12427     -0.15686     -4.14112         0.006157     -0.021560     -0.048080
O	      8.18353      1.92427     -8.19038         0.008596     -0.025276      0.053489
O	     10.31071      4.01719    -12.41066        -0.016571     -0.037528     -0.020092
O	      4.17168      6.22273     -0.07859        -0.017251     -0.014717     -0.040634
O	      6.25726      8.42933     -4.16651        -0.017857      0.013806     -0.069937
O	      8.23773     10.53019     -8.27305         0.003366     -0.026771     -0.074912
O	      8.22450      4.09154     -2.14625         0.010688     -0.001086     -0.068238
O	     10.34123      6.18308     -6.22806         0.005046     -0.016320     -0.072877
O	     12.43315      8.39785    -10.39441        -0.006754     -0.010767     -0.053133
O	      4.10124      4.45888     -1.98727        -0.008721      0.024084      0.077309
O	      6.17497      6.62091     -6.23256         0.017353      0.025691     -0.025681
O	      8.27099      8.80843    -10.19490         0.021259      0.046962      0.021803
O	      8.26034      2.39112     -4.08279         0.023282      0.019769     -0.035156
O	     10.33748      4.49370     -8.14633         0.023170      0.037792      0.074966
O	     12.36782      6.58262    -12.28457        -0.007234      0.018754      0.024444
O	      6.26853      8.74668      0.15150        -0.000059     -0.014421      0.072091
O	      8.29467     10.88493     -3.92985         0.008076     -0.005051      0.049578
O	     10.41188     13.13746     -7.98095        -0.002825      0.037493      0.059968
O	     10.43501      6.71691     -1.84180        -0.001372      0.037732      0.039065
O	     12.45078      8.83642     -5.96662         0.005948      0.008342      0.059083
O	     14.45728     10.81754    -10.14875         0.004071     -0.028291      0.051421
