# total energy = -905.13427634 eV
 
CRYSTAL
PRIMVEC
4.099634 8.591308 4.202161 
8.280536 -4.364533 -4.172383 
6.158795 6.349427 -0.013166 
PRIMCOORD
135 1
Li	      4.12325      2.18642     -2.09437        -0.014398     -0.016425     -0.021555
Li	      6.28866      4.24835     -6.28823         0.007346     -0.000066     -0.003645
Li	      8.26151      6.26064    -10.37847         0.010528     -0.035092     -0.002337
Li	      8.33835     -0.04790     -4.22613         0.020216      0.009864     -0.014541
Li	     10.32051      2.05434     -8.31589         0.001411      0.001683     -0.005891
Li	     12.41278      4.17444    -12.46549         0.003361      0.000594     -0.015306
Li	      8.29806      8.62980     -4.20064         0.002884      0.002640     -0.006438
Li	     10.39221      4.24489     -2.10686        -0.000177     -0.005157      0.012477
Li	     14.40879      8.55706    -10.35688         0.001259      0.003530     -0.009914
Li	      8.18383      8.46550      0.10458        -0.011973     -0.003769     -0.000902
Li	      6.19684      2.10382     -8.31137        -0.003570      0.015552     -0.000147
Li	     12.19801     12.45481     -8.29333        -0.004257     -0.008592     -0.001109
Li	      8.26587     -2.13554     -6.22098         0.001339     -0.007222     -0.003159
Li	     14.33276      8.29960     -6.18514        -0.003300     -0.006127      0.000242
Li	     16.46531     10.44820    -10.33372        -0.001807     -0.013276     -0.006892
Li	      6.21418      4.41356     -2.06955        -0.012175      0.011495     -0.001570
Li	      8.28528      6.36694     -6.25402         0.001411     -0.013664     -0.005643
Li	     10.42873      8.78773    -10.31208        -0.007976      0.000202     -0.001269
Li	     10.38083      2.06383     -4.18912         0.003385      0.021428      0.001103
Li	     12.41031      4.31730     -8.28451        -0.004663     -0.020038      0.009946
Li	     14.50194      6.44771    -12.46651        -0.002114      0.014334     -0.000065
Li	      6.15422      2.14939     -4.09389         0.001067      0.012306      0.011282
Li	     10.22338      6.26150    -12.38862        -0.018740     -0.011517      0.010421
Li	     12.35493      2.07328    -10.33646        -0.010787      0.013982      0.020443
Li	     14.42618      4.10775    -14.51415         0.012617      0.011931      0.015841
Li	      8.18343      6.38540     -1.96860         0.002057     -0.008400      0.020991
Li	     14.38117      6.24204     -8.18831        -0.006692     -0.005797      0.007359
Mn	      8.25946      4.26623     -4.11748        -0.003692      0.005966     -0.006631
Mn	     10.26544      6.26148     -8.28382         0.000242     -0.009151      0.013618
Mn	      6.12935      2.09198     -0.00869         0.014897      0.020480      0.013713
Mn	     12.33040      1.99007     -6.22963         0.002222      0.030136     -0.009464
Mn	     14.44392      4.20216    -10.36287         0.028768      0.008231      0.032059
Mn	      2.06332      4.31364      2.09444         0.010950      0.005021      0.022106
Mn	     10.25141      8.50181     -1.97868         0.000820      0.006059     -0.002978
Mn	     12.25957     10.58511     -6.12189        -0.008370      0.017221      0.007866
Mn	     14.29705     12.68207    -10.29194        -0.018537     -0.012650      0.005417
Mn	     14.33666      6.33725     -4.06285         0.007228     -0.026416     -0.014113
Mn	      8.15770     12.75945     -4.02941         0.008132     -0.054007      0.001342
Mn	     18.47757     10.56840    -12.36025         0.011036     -0.052569      0.003642
Mn	      2.04804      2.17436     -0.01075         0.005153     -0.008987     -0.016028
Mn	      4.06203      4.24218     -4.11718        -0.007118      0.001037     -0.017286
Mn	      6.18338      6.37081     -8.27575         0.010026     -0.008109      0.005853
Mn	      6.18898     -0.06815     -2.06788        -0.013530      0.004114     -0.008425
Mn	      8.28552      2.07481     -6.25637        -0.006158      0.003505      0.004800
Mn	     10.25963      4.12779    -10.33634         0.020571      0.005633     -0.000475
Mn	      4.10816      6.42548      2.12239         0.020036     -0.014850     -0.001488
Mn	      6.06638      8.52524     -1.90248         0.005587      0.005922      0.013247
Mn	      8.25467     10.71405     -6.27707        -0.004449      0.034063      0.012558
Mn	      8.19666      4.24584      0.08067        -0.008885      0.006640     -0.000909
Mn	     10.34650      6.37868     -4.21319         0.011441     -0.005054     -0.004012
Mn	     12.29185      8.45927     -8.20721         0.000613      0.007308     -0.010617
Mn	      6.13185      8.57213      2.11327         0.029783     -0.012212     -0.020681
Mn	      4.15320      2.06527     -6.19804        -0.021484      0.021813     -0.019186
Mn	      6.20665      4.25463    -10.37208        -0.010607     -0.002333      0.021716
Mn	      6.24801     -2.18284     -4.13279        -0.024077     -0.022996     -0.005124
Mn	     12.35402      8.47896     -4.13519         0.023523      0.015572     -0.001194
Mn	     10.34295      2.01259    -12.45126        -0.010349     -0.009694     -0.012316
Mn	      4.17455      4.27818     -0.06682         0.002814      0.020157     -0.022315
Mn	      6.19925      6.45066     -4.17349        -0.015876      0.005612      0.014689
Mn	      8.31517      8.51999     -8.33119         0.003841     -0.037098      0.012705
Mn	      8.31400      2.14828     -2.08623         0.011614      0.041077      0.011784
Mn	     10.37492      4.21176     -6.26331         0.006909      0.013691     -0.001390
Mn	     12.39382      6.36682    -10.42380        -0.011042      0.006562      0.019933
O	      4.15259     -0.26724     -2.02597         0.034824      0.030128     -0.007198
O	      6.13163      1.89021     -6.19942        -0.057603     -0.018616      0.004338
O	      8.29076      3.97525    -10.45199         0.034558      0.023172      0.001084
O	      8.18974     -2.35512     -4.17513        -0.056830     -0.015008      0.008648
O	     10.22172     -0.31440     -8.37840        -0.059918      0.030961      0.001013
O	     12.35948      1.81487    -12.43025        -0.035884      0.049095      0.011439
O	      6.12225      4.00470     -0.10385        -0.046597     -0.023350     -0.023036
O	      8.35627      6.21972     -4.12944         0.032127     -0.009563      0.008597
O	     10.30441      8.20394     -8.42059         0.004700      0.027770     -0.014142
O	     10.42672      1.87740     -2.16677         0.024010     -0.013529     -0.007216
O	     12.31840      3.91575     -6.29659        -0.076660     -0.021576     -0.009434
O	     14.53895      6.13680    -10.41630         0.031118     -0.010587     -0.007171
O	      6.11107      1.88975     -1.98495        -0.026262      0.029092      0.009894
O	      8.32398      4.12403     -6.04467         0.015385      0.088492      0.039198
O	     10.22756      6.06303    -10.28590        -0.024999     -0.003279     -0.020349
O	     10.39445     -0.22038     -4.06197        -0.020992      0.026590      0.008328
O	     12.31863      1.85522     -8.21633        -0.024183      0.064943      0.031733
O	     14.46620      3.99938    -12.35971        -0.031452      0.025802      0.004890
O	      8.39621      6.29148      0.17120         0.032621      0.091228     -0.026746
O	     10.30519      8.35672     -3.93014         0.004605      0.032887      0.020060
O	     12.49363     10.44010     -8.08205         0.008635      0.039729     -0.012964
O	     12.31029      4.05432     -1.83616        -0.029178      0.041252      0.041987
O	     14.60842      6.20406     -6.12173         0.038155      0.066514     -0.034483
O	     16.39976      8.30244    -10.13087        -0.028904      0.025133     -0.002433
O	      4.13613      2.24144     -4.22965         0.020026     -0.057072     -0.014125
O	      6.09326      4.40260     -8.35667         0.057805      0.007177      0.016972
O	      8.10839      6.55227    -12.46756        -0.007478     -0.009639      0.033697
O	      8.08136      0.00647     -6.28497        -0.009518     -0.084420     -0.003202
O	     10.40582      2.19420    -10.47395         0.004697     -0.026168     -0.022496
O	     12.46855      4.33555    -14.62092         0.017323     -0.012033     -0.027583
O	      6.10508      6.50539     -2.23926        -0.016980     -0.082596      0.003186
O	      8.09245      8.69828     -6.23074        -0.025855     -0.042248      0.038237
O	     10.15137     10.77496    -10.51951        -0.037500     -0.051576      0.012130
O	     10.21052      4.37581     -4.21483         0.012892     -0.042745      0.004308
O	     12.41067      6.49186     -8.49030         0.044230     -0.030470     -0.008869
O	     14.23720      8.54415    -12.54958        -0.029408     -0.075899      0.004625
O	      4.18562      2.28690      0.01036         0.057530     -0.002487     -0.016570
O	      6.29869      4.42966     -4.16912         0.066404     -0.044539      0.006786
O	      8.17154      6.58823     -8.29772        -0.038559     -0.010297     -0.009699
O	      8.32550      0.15463     -2.11863         0.028182     -0.039337     -0.003896
O	     10.35195      2.25928     -6.22303         0.078052     -0.007927     -0.004794
O	     12.44307      4.35356    -10.40166         0.011749     -0.057293      0.007216
O	      6.04074      6.66147      2.21720        -0.011500     -0.019153      0.012611
O	      8.28576      8.68613     -1.98446         0.065591      0.011657      0.007522
O	     10.17474     10.93364     -6.08268        -0.032868     -0.004633      0.005543
O	     10.36074      4.47847      0.08150         0.065739      0.023796     -0.001145
O	     12.28055      6.57402     -4.01222        -0.032324     -0.005496     -0.007363
O	     14.37154      8.63322     -8.21436        -0.062125      0.021854     -0.013856
O	      2.07413      1.92711     -2.02917        -0.008719      0.021505      0.045578
O	      4.15969      4.02905     -6.26234        -0.000395     -0.031087     -0.038689
O	      6.17327      6.25120    -10.42801        -0.011068      0.035203     -0.047152
O	      6.22156     -0.21146     -4.21279         0.006846      0.009002     -0.053537
O	      8.26052      1.81409     -8.35209        -0.010696     -0.016312     -0.039314
O	     10.34011      3.96591    -12.53471        -0.000776     -0.019024     -0.006973
O	      4.07198      6.16154     -0.14611        -0.008556     -0.019180     -0.037238
O	      6.18195      8.44638     -4.22170        -0.012231      0.038119     -0.028456
O	      8.18940     10.42603     -8.43117        -0.006563      0.018596     -0.070969
O	      8.29413      4.13408     -2.13558         0.000658      0.035019     -0.055833
O	     10.26116      6.10346     -6.34232         0.003277     -0.026876      0.022342
O	     12.38384      8.30331    -10.51340        -0.025152      0.019434     -0.063475
O	      4.19218      4.38718     -2.04166        -0.003346     -0.001882      0.020290
O	      6.15419      6.58654     -6.11670         0.010666      0.021151      0.025423
O	      8.18297      8.69942    -10.43937         0.003499      0.031464     -0.038668
O	      8.24156      2.29517     -4.05227         0.007047      0.022966      0.013478
O	     10.40069      4.30024     -8.22455         0.007710     -0.039529      0.045423
O	     12.31923      6.46241    -12.38348         0.000490      0.001171      0.023917
O	      6.21736      8.80843      0.16437        -0.002766      0.005043      0.006486
O	      8.19850     10.78239     -3.94006         0.012922     -0.047646      0.051547
O	     10.28606     13.04822     -8.09961         0.014756      0.049672     -0.020994
O	     10.24377      6.55104     -1.87559         0.014139      0.022104      0.036936
O	     12.37057      8.66765     -6.06243         0.001198     -0.014278      0.035516
O	     14.47777     10.71856    -10.22198         0.001397     -0.024465      0.076947
