# total energy = -910.02083935 eV
 
CRYSTAL
PRIMVEC
4.188454 8.512929 4.090026 
8.438336 -4.281445 -4.119477 
6.325029 6.404185 -0.013195 
PRIMCOORD
136 1
Li	      4.26381      2.15090     -2.04758        -0.001813     -0.004307      0.004672
Li	      6.27400      4.11639     -6.28080         0.000874     -0.021519     -0.002448
Li	      8.47784      6.30921    -10.30674         0.017719     -0.006843     -0.010466
Li	      8.45459      0.00920     -4.17056        -0.011264      0.006225     -0.015643
Li	      6.35719      6.41814     -0.01394         0.003446     -0.003800      0.020846
Li	      8.36767      8.39681     -4.24740         0.003556     -0.035194      0.002843
Li	     10.56328     10.57599     -8.26759         0.015494     -0.004994     -0.005248
Li	     10.55563      4.23935     -2.11571        -0.007917      0.009234      0.002166
Li	     12.84651      6.37400     -6.34313         0.007728      0.000137      0.003048
Li	      8.38139      8.41997     -0.05253         0.012740      0.000531      0.007887
Li	     10.46203     10.59681     -4.18689         0.006030     -0.007863      0.005568
Li	      8.46984      4.32348    -12.31222         0.001271      0.014624     -0.005188
Li	      8.51413     -2.08141     -6.19519        -0.006732      0.008587      0.007564
Li	     16.75211     10.58678    -10.32919         0.006162      0.031724     -0.006835
Li	      6.26834      4.17748     -2.10776        -0.000958      0.006499      0.011089
Li	      8.38355      6.35932     -6.22217         0.001150     -0.049524     -0.013924
Li	     10.56172      8.60411    -10.27945        -0.004139      0.021229     -0.007138
Li	     10.60702      2.16836     -4.12751        -0.006706      0.000221      0.002612
Li	      6.18972      2.06357     -4.15624        -0.016064     -0.005898     -0.011444
Li	      8.44366      4.23512     -8.19829        -0.002047     -0.002001     -0.005320
Li	     10.58334      6.38518    -12.27949        -0.008588      0.011856     -0.008553
Li	     10.57761      0.04973     -6.18902         0.004201      0.001360      0.003980
Li	     14.64468      4.42999    -14.27053         0.008056      0.020051     -0.023297
Li	      8.29993      6.31007     -2.12613        -0.011520      0.009172      0.005834
Li	     10.51203      8.59768     -6.15676         0.005214      0.006431      0.007267
Li	     12.68991     10.67342    -10.26600        -0.005280      0.014614     -0.016513
Li	     12.66933      4.19159     -4.12033        -0.013966      0.003051      0.019016
Li	     16.70771      8.47967    -12.33470         0.005194      0.034732     -0.012881
Mn	      8.36127      4.18280     -4.21442        -0.010567     -0.001430      0.008876
Mn	     10.50385      6.48826     -8.22862        -0.018979     -0.003953      0.021507
Mn	     12.70193      8.53759    -12.26933         0.002635      0.013851     -0.006897
Mn	      4.22708      6.38200     -2.06032        -0.003928     -0.019804     -0.001814
Mn	     14.62906      4.23746    -10.30072        -0.005880      0.007081      0.029726
Mn	     16.78430      6.38297    -14.35075        -0.009370      0.024280     -0.024513
Mn	     10.45123      8.44097     -2.17138         0.003052      0.006030      0.022513
Mn	      8.42412      2.21845    -10.26138         0.002853      0.001893      0.006197
Mn	     10.59318      4.29918    -14.31683         0.004448      0.016065     -0.001666
Mn	      2.15040      2.11364     -4.08647        -0.001197     -0.006379      0.016388
Mn	     16.71500      8.49184     -8.25707         0.006080     -0.002880      0.027022
Mn	     14.72584      2.12634    -16.41578         0.004189      0.011417     -0.012153
Mn	      2.12241      2.14302      0.04301        -0.001684      0.017430     -0.001428
Mn	      4.14253      4.25136     -4.25237         0.006279     -0.009301      0.023015
Mn	      6.19861      6.43027     -8.23846         0.027245      0.006612      0.001038
Mn	      6.35455      0.00467     -1.98561        -0.012034     -0.005586     -0.027013
Mn	      8.48022      2.07487     -6.24555        -0.010583     -0.017363      0.003837
Mn	     10.71203      4.22300    -10.24108        -0.034823     -0.010068      0.011358
Mn	      4.22372      6.38499      2.08934        -0.005015      0.003063      0.004873
Mn	      6.26910      8.46195     -2.19019         0.005773     -0.014490      0.015837
Mn	      8.20851     10.71865     -6.23056         0.037154      0.019428     -0.018549
Mn	      8.41728      4.28062     -0.01180        -0.003907     -0.022979     -0.015922
Mn	     10.56036      6.32580     -4.18569        -0.002006     -0.004967     -0.022880
Mn	     12.78137      8.52510     -8.25318        -0.025091     -0.012427      0.025703
Mn	      2.16786      0.03943     -2.02935         0.007541     -0.016358      0.017029
Mn	      8.33805     10.53994     -2.22793         0.009610     -0.042222      0.004789
Mn	      6.33262      4.25997    -10.28689         0.031749     -0.005799     -0.032240
Mn	     10.52458      6.40353     -0.10109         0.010645      0.021905     -0.007830
Mn	      8.59433      0.02583     -8.33563        -0.019656      0.030511      0.008827
Mn	     10.60673      2.15640    -12.32844        -0.000007     -0.014821     -0.020591
Mn	      4.25511      4.30729      0.01389        -0.005548     -0.005702      0.007188
Mn	      6.25538      6.27629     -4.26332        -0.004820     -0.027789      0.004747
Mn	      8.42678      8.54449     -8.23546         0.011828     -0.016847     -0.038188
Mn	      8.41825      2.13585     -2.15226         0.002264      0.017879     -0.010346
Mn	     10.66524      4.23358     -6.29421        -0.002361      0.019914     -0.014976
Mn	     12.72464      6.39071    -10.31471        -0.000069     -0.000624     -0.003004
O	      4.36530     -0.17880     -2.00329         0.006257      0.007294      0.013156
O	      6.12797      1.88208     -6.25270        -0.002930      0.003573     -0.003364
O	      8.28524      4.19924    -10.24370        -0.044654      0.047764     -0.003742
O	      8.55460     -2.32679     -4.12180         0.020072     -0.001043      0.000097
O	     10.67263     -0.26970     -8.16353        -0.010340     -0.036169     -0.012827
O	     12.53403      1.89527    -12.40404        -0.058414     -0.027639     -0.006270
O	      6.44862      4.07914      0.02585         0.002451      0.009916      0.006915
O	      8.25173      6.13462     -4.20957         0.000434      0.004924     -0.015805
O	     10.39151      8.46253     -8.21215        -0.055201      0.023127     -0.005057
O	     10.64715      1.93113     -2.05616         0.011692      0.009804     -0.003931
O	     12.78159      4.03762     -6.12988         0.008224     -0.023675      0.013084
O	     14.61560      6.13224    -10.26630        -0.082144     -0.028994     -0.007809
O	      6.24904      1.97202     -1.98729        -0.014509      0.029756     -0.007151
O	      8.37345      4.03715     -6.18202        -0.021311     -0.003830     -0.006131
O	     10.70299      6.19527    -10.31159         0.036663      0.015865     -0.036427
O	     10.47266     -0.18282     -3.96635        -0.026423      0.020996     -0.007183
O	     12.76087      1.89617     -8.10246        -0.025063      0.012182      0.043198
O	     14.92067      4.08462    -12.31628         0.027856      0.044225      0.025658
O	      8.34706      6.24704      0.03969        -0.023890      0.028134      0.003156
O	     10.45533      8.29185     -4.13506        -0.017012      0.020120      0.005823
O	     12.79125     10.48240     -8.29562         0.055872     -0.000597     -0.055309
O	     12.56922      4.06258     -1.93434        -0.016408      0.007328     -0.018032
O	     14.80470      6.12685     -6.06652        -0.021194      0.015925      0.042946
O	     16.99232      8.39573    -10.29838         0.032357      0.046192      0.005535
O	      4.10688      2.23029     -4.13468        -0.016781     -0.027944      0.033618
O	      6.17502      4.40012     -8.32128        -0.027650     -0.030361     -0.021046
O	      8.52318      6.58352    -12.40698         0.006520     -0.017676      0.006398
O	      8.51354      0.12137     -6.32730         0.020937      0.000355      0.029584
O	     10.36772      2.33768    -10.37846         0.034447     -0.007810     -0.042951
O	     12.69339      4.45424    -14.61022         0.024890     -0.013363      0.021477
O	      6.20926      6.47281     -2.07969        -0.021954     -0.039359      0.024001
O	      8.28137      8.68089     -6.27629        -0.030271     -0.023330     -0.025815
O	     10.62601     10.83731    -10.37222         0.007637     -0.016334      0.014127
O	     10.61119      4.37293     -4.26989         0.000352     -0.012881     -0.004901
O	     12.47307      6.62961     -8.28008         0.037711     -0.008936     -0.025247
O	     14.78546      8.75989    -12.58935         0.027654     -0.004798      0.014581
O	      4.13207      2.33906      0.04972        -0.032081     -0.005273     -0.001689
O	      6.13767      4.30215     -4.22693         0.000920     -0.011819     -0.002408
O	      8.53369      6.60461     -8.26399        -0.007773      0.034874      0.000888
O	      8.30002      0.18662     -2.16906        -0.002344     -0.025219      0.010464
O	     10.72118      2.28178     -6.13827         0.053465     -0.027712     -0.003802
O	     12.75211      4.49256    -10.33473         0.072774      0.025329      0.005947
O	      6.24766      6.57955      2.09809        -0.015223     -0.008220      0.013162
O	      8.24114      8.56663     -2.18173        -0.004495     -0.017343     -0.003230
O	     10.63639     10.84159     -6.22593        -0.000768      0.040751      0.002511
O	     10.40224      4.44494     -0.02853         0.003895     -0.016815      0.001619
O	     12.82172      6.55703     -4.19170         0.034742     -0.018360      0.013047
O	     14.83319      8.76598     -8.28197         0.084846      0.014356     -0.004036
O	      2.14878      2.00531     -2.12051         0.002649      0.006958     -0.059481
O	      4.25931      3.94893     -6.35149        -0.015421      0.018206     -0.077417
O	      6.30689      6.23290    -10.29445        -0.000333     -0.035264      0.003269
O	      6.31379     -0.16372     -4.31709        -0.008317      0.023166     -0.001586
O	      8.33745      1.96804     -8.18844        -0.004487      0.004100      0.062991
O	     10.47354      4.11846    -12.26410         0.005523     -0.026378      0.003058
O	      4.25144      6.27922     -0.06595         0.012493      0.022085     -0.057812
O	      6.36723      8.20115     -4.29836        -0.010399      0.032797     -0.073408
O	      8.50877     10.51107     -8.24937        -0.007089     -0.031786      0.007490
O	      8.41590      4.09831     -2.26817        -0.015329      0.018525     -0.026192
O	     10.55615      6.21207     -6.15007        -0.012973     -0.004223      0.032408
O	     12.56792      8.37043    -10.23557         0.002138     -0.020606      0.008953
O	      4.20203      4.42601     -1.93042         0.006327      0.022524      0.013291
O	      6.34406      6.53639     -6.31491        -0.011375      0.025782     -0.037589
O	      8.39555      8.69780    -10.16906        -0.004547     -0.014042      0.080778
O	      8.42163      2.20364     -4.19012        -0.010230     -0.002095     -0.019655
O	     10.41541      4.52856     -8.24547         0.006664     -0.036076     -0.022843
O	     12.59616      6.65482    -12.22751        -0.008218     -0.013260      0.082437
O	      6.31046      8.65525      0.11912         0.002817      0.019649      0.013450
O	      8.40720     10.81246     -4.29560         0.003262      0.033502     -0.048499
O	     10.51517     12.94835     -8.13481         0.002150     -0.020908      0.074321
O	     10.52724      6.45266     -2.13782         0.007161     -0.004512     -0.000667
O	     12.52450      8.73025     -6.21878         0.009606     -0.022307     -0.019290
O	     14.76539     10.91327    -10.19397         0.016432     -0.017030      0.075207
