# total energy = -910.02662240 eV
 
CRYSTAL
PRIMVEC
4.192529 8.513590 4.089109 
8.446243 -4.281656 -4.118133 
6.330521 6.405233 -0.013180 
PRIMCOORD
136 1
Li	      4.35444      2.18007     -2.03829         0.004490      0.007264      0.005250
Li	      6.28000      4.25857     -6.28109         0.006433     -0.009969     -0.001311
Li	      8.41790      6.41239    -10.36625         0.007380      0.004856      0.005798
Li	      8.39843     -0.09553     -4.12892         0.000907      0.002470      0.002395
Li	     10.65909      1.93832     -8.41027        -0.007317     -0.027692      0.022210
Li	      6.43168      6.44338      0.02171         0.004320     -0.001747     -0.011874
Li	      8.36294      8.48773     -4.20364         0.004120     -0.014239      0.009126
Li	     10.53662     10.56047     -8.31914         0.008464     -0.006855      0.000863
Li	     10.49748      4.28100     -2.10759         0.015813     -0.001336     -0.017565
Li	     12.78611      6.39831     -6.25611        -0.004405     -0.040080      0.013024
Li	      4.26969      0.07075     -4.08779        -0.003012     -0.009726     -0.014295
Li	     10.49432     10.55643     -4.19329         0.001887     -0.018054      0.002439
Li	      8.48349      4.28895    -12.33922        -0.000584      0.051051      0.009096
Li	     12.56019      6.30476     -2.09798         0.010914      0.001282     -0.005034
Li	      6.34642      4.34053     -2.05479        -0.012224     -0.001104     -0.009990
Li	      8.39504      6.32253     -6.24878        -0.003698     -0.012579      0.000916
Li	     10.59461      8.56429    -10.28701        -0.002639      0.008799     -0.001043
Li	     10.46335      2.04301     -4.12081         0.010945     -0.007743     -0.006337
Li	     12.74045      4.28791     -8.26218        -0.002659     -0.029521      0.013657
Li	      6.27546      2.09812     -4.14882        -0.003977      0.002828     -0.007512
Li	      8.38684      4.34459     -8.25716        -0.015846     -0.001706      0.008403
Li	     10.59852      6.53959    -12.27853        -0.007385      0.017468     -0.004310
Li	     10.52466     -0.04043     -6.14179         0.013524     -0.008317      0.006781
Li	      8.37113      6.34702     -2.09391        -0.000942      0.000235     -0.018534
Li	     10.49063      8.58856     -6.20620        -0.012173      0.002145      0.004749
Li	     12.69186     10.77098    -10.22336        -0.007188      0.027249     -0.006947
Li	     12.61483      4.24141     -4.10878         0.009718     -0.012984     -0.000483
Li	     16.64825      8.49780    -12.25124        -0.003818      0.006526      0.001313
Mn	      8.37235      4.20631     -4.16643        -0.010388      0.005705     -0.020848
Mn	     10.53355      6.38724     -8.27601        -0.029335      0.008379      0.039850
Mn	     12.72356      8.62662    -12.24224        -0.023132      0.019741     -0.010434
Mn	      4.19953      6.35466     -2.00385        -0.007678     -0.021865     -0.014513
Mn	     14.70286      4.21268    -10.34935        -0.004261      0.011850      0.004185
Mn	     16.71684      6.34021    -14.34925         0.016843     -0.017687      0.008984
Mn	     10.47560      8.45265     -2.12079        -0.001692     -0.001597     -0.011411
Mn	     12.63082     10.61587     -6.23847        -0.011330      0.021565      0.035536
Mn	     10.61278      4.37527    -14.29616         0.012722      0.015748     -0.015556
Mn	      2.11611      2.11008     -4.04235        -0.001616     -0.019521      0.001715
Mn	     16.77689      8.49113     -8.27639        -0.008953      0.005723     -0.000796
Mn	     18.83439     10.64900    -12.29606         0.007572     -0.023441      0.008500
Mn	      2.05573      2.17111      0.04362         0.010284      0.004083      0.016514
Mn	      4.18092      4.24075     -4.20805         0.004797      0.003867      0.014938
Mn	      6.15038      6.42632     -8.32027         0.019921     -0.008111     -0.003024
Mn	      6.39721     -0.00688     -1.94521        -0.005643      0.013903     -0.011273
Mn	      8.41754      2.10075     -6.23878         0.002756     -0.016796     -0.002147
Mn	     10.67129      4.21570    -10.32367        -0.027803      0.016734     -0.014228
Mn	      4.16453      6.43322      2.07760         0.004075      0.003572      0.012845
Mn	      6.30711      8.47815     -2.09286         0.010658      0.016460      0.013323
Mn	      8.27047     10.63713     -6.22014         0.022955      0.012127     -0.006247
Mn	      8.46162      4.29740      0.08151        -0.007518      0.008165     -0.017163
Mn	     10.50600      6.37276     -4.19505         0.006128     -0.006233     -0.002112
Mn	     12.85185      8.44017     -8.23937        -0.035560     -0.001533     -0.002674
Mn	      2.17584      0.06291     -1.98162         0.001211     -0.009041     -0.001299
Mn	      8.34851     10.62526     -2.20393         0.009520      0.002302      0.003574
Mn	     10.55173     12.67255     -6.24691         0.009788      0.009902     -0.001506
Mn	     10.50312      6.37678     -0.04666        -0.012293      0.004990     -0.002206
Mn	     12.71156      8.49511     -4.24101         0.008448     -0.017102      0.008313
Mn	     10.67582      2.12886    -12.38215         0.032500     -0.016773     -0.008784
Mn	      4.27546      4.31758      0.06346         0.000674     -0.018012     -0.027567
Mn	      6.26818      6.35026     -4.24552        -0.002482     -0.016761      0.002131
Mn	      8.43921      8.42788     -8.30198        -0.011109      0.001658      0.000122
Mn	      8.38953      2.12851     -2.11263        -0.003501      0.014215     -0.003680
Mn	     10.57815      4.23892     -6.26424         0.005277     -0.008069     -0.011996
Mn	     12.78051      6.38924    -10.33378         0.010518     -0.006638     -0.015141
O	      4.39968     -0.05516     -1.96836         0.025058      0.000574      0.000290
O	      6.40884      1.90710     -6.24519         0.033090      0.001554      0.003138
O	      8.33037      4.04281    -10.29972         0.006481     -0.039899      0.003193
O	      8.25391     -2.31751     -4.17665        -0.042780      0.029583      0.000513
O	     10.67977     -0.22181     -8.14474         0.015008      0.006844     -0.003080
O	     12.55423      1.87590    -12.34524        -0.066257     -0.030841     -0.008344
O	      6.48760      4.19580      0.07553         0.029743      0.006809     -0.003193
O	      8.48201      6.17889     -4.20252         0.020287      0.009913     -0.011771
O	     10.41493      8.31894     -8.24713         0.005275     -0.045212      0.001172
O	     10.34572      1.91623     -2.03653        -0.026051      0.025661     -0.008397
O	     12.76680      4.03238     -6.19355         0.007126      0.009787     -0.003552
O	     14.66328      6.11651    -10.30520        -0.079928     -0.022616     -0.001887
O	      6.43278      2.01389     -2.06561         0.034417      0.018804     -0.023444
O	      8.34347      4.06596     -6.15609        -0.016227      0.016057     -0.004738
O	     10.69554      6.24836    -10.24142         0.022806      0.023532      0.029481
O	     10.46723     -0.15823     -3.99425        -0.020067      0.000608     -0.012691
O	     12.61183      1.91448     -8.06995        -0.023146      0.003235     -0.007795
O	     14.94096      4.02912    -12.30037        -0.018528      0.007180      0.041775
O	      8.52045      6.28900     -0.02650         0.035011      0.002704     -0.017821
O	     10.42977      8.32592     -4.10164        -0.008937      0.007666     -0.009650
O	     12.77906     10.47865     -8.19767         0.030179      0.014014      0.032360
O	     12.56103      4.10661     -1.95570        -0.004049     -0.008279      0.011465
O	     14.70910      6.12229     -6.00075        -0.025887     -0.009223     -0.011423
O	     17.02737      8.25099    -10.31340        -0.018380     -0.003594      0.031055
O	      4.28575      2.27144     -4.20979         0.024233     -0.010068     -0.008477
O	      6.15848      4.45261     -8.25127        -0.032886      0.006163      0.031307
O	      8.49387      6.61568    -12.37915         0.011975      0.004422      0.003982
O	      8.50484      0.14357     -6.34927         0.018947     -0.004692      0.014609
O	     10.38345      2.28056    -10.36656        -0.032647     -0.045599     -0.023860
O	     12.54712      4.47176    -14.57645         0.007570     -0.004792     -0.047063
O	      6.37919      6.50962     -2.14711         0.025280     -0.005401     -0.014350
O	      8.25871      8.68070     -6.17320        -0.050540      0.007183      0.037104
O	     10.59954     10.87005    -10.33852         0.012429      0.007629      0.007404
O	     10.59898      4.41207     -4.28904         0.008479      0.007660      0.012427
O	     12.50113      6.48352     -8.29064        -0.036724     -0.033822     -0.021043
O	     14.69319      8.75387    -12.52617         0.015766     -0.000195     -0.032803
O	      4.41490      2.36440      0.05447        -0.001744     -0.008686      0.001789
O	      6.17179      4.42297     -4.19261        -0.005485      0.003623     -0.018423
O	      8.57927      6.44550     -8.32075         0.048444     -0.028539      0.009446
O	      8.30727      0.23010     -2.15447        -0.005748      0.042212      0.005419
O	     10.42437      2.28705     -6.19245        -0.026070      0.010444      0.001504
O	     12.77581      4.47237    -10.27697         0.043589      0.031081      0.001224
O	      6.47804      6.62479      2.10395        -0.002939     -0.011000      0.004240
O	      8.27848      8.67912     -2.13217        -0.013758     -0.004612     -0.016068
O	     10.66482     10.69778     -6.26332         0.056559     -0.010366      0.005831
O	     10.38777      4.43817     -0.09930        -0.022922      0.043847     -0.004373
O	     12.52275      6.54271     -4.16827        -0.022045      0.003526      0.004963
O	     14.88607      8.74794     -8.32739         0.051387      0.022517      0.007789
O	      2.11461      2.04196     -2.00555         0.004473     -0.002200      0.019380
O	      4.26423      3.99549     -6.33527         0.010827     -0.003514     -0.066420
O	      6.44683      6.12081    -10.31729        -0.004225      0.019984      0.025211
O	      6.33439     -0.18107     -4.26640         0.002799     -0.025874     -0.003605
O	      8.46943      1.94839     -8.39508        -0.000415      0.010001     -0.067495
O	     10.52362      4.11218    -12.24860         0.006155     -0.031977      0.060198
O	      4.19687      6.30596      0.02867        -0.003900     -0.002865      0.027190
O	      6.28248      8.24973     -4.27744        -0.004032      0.009031     -0.062724
O	      8.52598     10.43093     -8.25479         0.002537      0.021648      0.012691
O	      8.41787      4.10000     -2.22624         0.000150     -0.003711     -0.004848
O	     10.53819      6.21157     -6.33766        -0.007692      0.015426     -0.073155
O	     12.64953      8.34990    -10.17371         0.004944     -0.045146      0.067155
O	      4.22583      4.40781     -1.88057        -0.000503     -0.016537      0.009100
O	      6.39133      6.53116     -6.29502        -0.009947      0.031541     -0.014933
O	      8.52983      8.68184    -10.37952        -0.003046     -0.003002     -0.052110
O	      8.39109      2.23956     -4.07649        -0.000119     -0.002937      0.052330
O	     10.56213      4.41274     -8.26753        -0.005779      0.050050     -0.006857
O	     12.61465      6.70289    -12.20907         0.002342     -0.012213      0.068523
O	      6.31272      8.66020      0.16277         0.009437     -0.006990      0.018480
O	      8.48816     10.79300     -4.23532        -0.007156      0.020918     -0.020999
O	     10.50109     12.95148     -8.32304         0.010857      0.001743     -0.040348
O	     10.47729      6.47990     -2.04009        -0.002864     -0.012232      0.050988
O	     12.54834      8.64791     -6.22358         0.005595      0.039699     -0.006896
O	     14.69429     10.96229    -10.17345         0.000767     -0.018270      0.053200
