# total energy = -909.72829788 eV
 
CRYSTAL
PRIMVEC
4.135328 8.542473 4.147824 
8.371626 -4.328926 -4.149875 
6.239955 6.371204 -0.013133 
PRIMCOORD
136 1
Li	      4.25460      2.14291     -2.02413         0.013062      0.000471     -0.016411
Li	      6.26555      4.17967     -6.28647         0.016843     -0.022083     -0.004943
Li	      8.34905      6.35640    -10.41823         0.016713      0.001149     -0.008287
Li	      8.32519     -0.03865     -4.14106        -0.001009     -0.015077     -0.002965
Li	     10.53508      1.99272     -8.38754         0.012884     -0.015882     -0.015905
Li	      6.29287      6.44873      0.07502        -0.019670      0.010277      0.004374
Li	      8.23712      8.65671     -4.18683        -0.002766     -0.002519      0.004720
Li	     10.37863     10.66168     -8.32249        -0.005648     -0.033893     -0.004085
Li	     10.38236      4.18887     -2.05218        -0.003805     -0.012400     -0.006690
Li	     12.61965      6.50317     -6.27093        -0.015158      0.003424     -0.003805
Li	      4.20171      0.04884     -4.11312        -0.006725      0.021509     -0.009820
Li	     10.34131     10.58813     -4.16527         0.007619     -0.011921      0.002994
Li	      8.35812      4.23736    -12.38869        -0.004848     -0.014899     -0.002533
Li	     12.41883      6.34912     -2.06646        -0.010104     -0.005146      0.004596
Li	      6.27514      4.28596     -2.02493        -0.011529      0.001485      0.000316
Li	      8.28388      6.34181     -6.27485        -0.000182      0.017820      0.004140
Li	     10.44301      8.49982    -10.35921         0.003431      0.019371     -0.005039
Li	     10.38854      1.99086     -4.12074        -0.002150     -0.009142     -0.004774
Li	     12.65569      4.39419     -8.31348        -0.004448     -0.003256     -0.000180
Li	      6.23406      2.02414     -4.16015        -0.010412      0.021445      0.000890
Li	      8.30463      4.24786     -8.32393         0.001513      0.007932      0.004023
Li	     10.42933      6.39490    -12.35267         0.005367      0.026897      0.004420
Li	     10.43271     -0.14290     -6.16305         0.013491      0.019631      0.002601
Li	     12.47880      1.91736    -10.37465         0.011223     -0.004262      0.000028
Li	      8.25698      6.30352     -2.08822        -0.021210      0.016322      0.006536
Li	     10.33098      8.50830     -6.20934        -0.008011     -0.003165     -0.005414
Li	     12.50760     10.64476    -10.25048        -0.015669     -0.001797      0.001422
Li	     12.46440      4.15938     -4.08201        -0.006070      0.016276      0.013738
Mn	      8.28867      4.14511     -4.15328        -0.004401      0.014402     -0.004699
Mn	     10.39684      6.33894     -8.31881         0.018029      0.030208      0.006898
Mn	     12.52906      8.55749    -12.34013        -0.015037     -0.048826      0.028806
Mn	      4.15852      6.39911     -2.01954        -0.002059      0.010933     -0.000383
Mn	      6.22290      8.48915     -6.25845         0.041272      0.040094     -0.002877
Mn	     16.52342      6.22668    -14.43875         0.006051     -0.028568      0.016892
Mn	     10.33159      8.46004     -2.07298        -0.013632      0.018287      0.000184
Mn	     12.47944     10.58376     -6.21057        -0.004156     -0.029174     -0.002376
Mn	     10.45839      4.28422    -14.40069         0.021550     -0.018242     -0.027230
Mn	     10.41257     -2.23496     -8.20912         0.005255     -0.021324     -0.008461
Mn	     16.56408      8.41994     -8.28994        -0.020098     -0.038228      0.010302
Mn	     18.58615     10.53711    -12.33032         0.007921      0.011190      0.014684
Mn	      2.00858      2.13919      0.04684         0.020517      0.012395     -0.000160
Mn	      4.15214      4.20000     -4.17630         0.003279      0.013920      0.000430
Mn	      6.12388      6.41528     -8.39102         0.039866     -0.003857     -0.006199
Mn	      6.32641     -0.04800     -1.93853         0.000307      0.012913     -0.011211
Mn	      8.36021      2.04525     -6.25066         0.005304     -0.003063     -0.006243
Mn	     10.54518      4.24706    -10.39793        -0.007714      0.028537      0.010902
Mn	      4.04816      6.39616      2.16281         0.011438     -0.010791      0.013825
Mn	      6.21690      8.51519     -2.06474         0.006958      0.003612      0.015927
Mn	      8.21501     10.65377     -6.31377         0.022069     -0.029995      0.008484
Mn	      8.38709      4.21576      0.14746        -0.028814     -0.013122     -0.019621
Mn	     10.36846      6.37405     -4.17142        -0.017588      0.004331      0.002759
Mn	     12.66222      8.45625     -8.28113        -0.032752     -0.014716      0.000729
Mn	      2.12320      0.03467     -2.00269        -0.006605      0.016020     -0.011384
Mn	      8.25775     10.69111     -2.12453         0.008308     -0.003457      0.018078
Mn	     10.35105     12.72979     -6.23255        -0.025887     -0.016289      0.027776
Mn	      6.26057     -2.16428     -4.14511        -0.004995     -0.002170     -0.030413
Mn	      8.41875     -0.03929     -8.35088        -0.006255      0.011691     -0.038779
Mn	     10.55117      2.13084    -12.45364         0.015285     -0.046850      0.007809
Mn	      4.21262      4.33271      0.07612         0.008571      0.015609      0.004841
Mn	      6.23094      6.31202     -4.23165        -0.013162     -0.015399      0.002915
Mn	      8.36013      8.40472     -8.36682        -0.019933      0.016260      0.001473
Mn	      8.34801      2.10105     -2.06582        -0.004647     -0.011192     -0.031263
Mn	     10.47453      4.24941     -6.27747         0.005492     -0.003674     -0.009782
Mn	     12.68114      6.41905    -10.40168         0.010847      0.021590      0.023041
O	      4.33230     -0.12502     -2.00905         0.026225     -0.050725      0.012633
O	      6.37639      1.89414     -6.24794         0.009446      0.020678     -0.007156
O	      8.24400      4.01602    -10.34569        -0.040873      0.021054     -0.001091
O	      8.18881     -2.40377     -4.21698        -0.087282      0.028541     -0.007268
O	     10.57847     -0.27644     -8.17779         0.016536      0.009736      0.004560
O	     12.44755      1.81273    -12.38305        -0.092380     -0.001478     -0.019154
O	      6.40864      4.14930      0.08332         0.028865     -0.005835     -0.000998
O	      8.28666      6.12613     -4.19386         0.026971      0.021326      0.011988
O	     10.34755      8.26873     -8.30517        -0.002583     -0.044239     -0.003431
O	     10.26952      1.88769     -2.12380        -0.056164      0.039244      0.023388
O	     12.61978      3.99548     -6.23764        -0.003064      0.021390      0.011811
O	     14.69073      6.04087    -10.36910         0.028057     -0.063821      0.004156
O	      6.33727      2.01767     -1.96730         0.032124      0.023523      0.016622
O	      8.27731      4.00789     -6.15433        -0.006224      0.017597     -0.002410
O	     10.39620      6.17221    -10.27523        -0.031664     -0.038314      0.037344
O	     10.34826     -0.22897     -4.02370        -0.002043      0.023302     -0.014658
O	     12.58606      1.84311     -8.30927        -0.027576     -0.001984      0.005406
O	     14.76832      3.97111    -12.35585         0.012139     -0.002649      0.029107
O	      8.38000      6.28095      0.16792         0.028089      0.050239      0.041737
O	     10.27453      8.32131     -4.05226        -0.015795      0.010832      0.003287
O	     12.62530     10.51751     -8.17421         0.052012      0.076195     -0.019691
O	     12.40647      4.01141     -1.91398        -0.024383     -0.039271     -0.016434
O	     14.50054      6.09896     -5.98071        -0.010293     -0.004717     -0.004129
O	     16.78778      8.27368    -10.23326         0.065920      0.039926      0.010508
O	      4.23618      2.23830     -4.23261         0.030595     -0.020471      0.000913
O	      6.16279      4.37531     -8.42965        -0.015265     -0.029572     -0.061078
O	      8.37023      6.54884    -12.47158         0.010516      0.000527      0.005777
O	      8.43634      0.10128     -6.35580         0.004906     -0.012884      0.012071
O	     10.52417      2.35328    -10.46160         0.052336      0.017234     -0.026143
O	     12.39142      4.38761    -14.63635        -0.042561     -0.032550     -0.024443
O	      6.19499      6.51145     -2.03278         0.000840      0.004199      0.032009
O	      8.20750      8.61317     -6.22457        -0.043882     -0.040982      0.024983
O	     10.45705     10.83588    -10.37210         0.038389      0.039422     -0.003450
O	     10.47146      4.41657     -4.29687         0.028424      0.007620      0.011904
O	     12.35898      6.44419     -8.38566        -0.055623     -0.079179      0.019083
O	     14.46991      8.66310    -12.56106        -0.043894     -0.009361     -0.036839
O	      4.32523      2.37066      0.01802         0.035652     -0.011130      0.026454
O	      6.13572      4.37100     -4.15918        -0.019093     -0.012450      0.003849
O	      8.43168      6.42876     -8.31422         0.053032     -0.030933     -0.010294
O	      8.22219      0.20379     -2.14363        -0.025733      0.046424     -0.001943
O	     10.45195      2.27085     -6.22355         0.008375      0.010164      0.001721
O	     12.63414      4.43651    -10.32022         0.048515     -0.034802     -0.024352
O	      6.38488      6.61783      2.14086         0.052434     -0.027638     -0.020968
O	      8.16426      8.69361     -2.07429        -0.028218     -0.034420      0.010063
O	     10.26710     10.77982     -6.25746        -0.022686      0.045787     -0.006576
O	     10.27893      4.48047     -0.06752        -0.017938      0.026597      0.009760
O	     12.36269      6.52693     -4.12178        -0.021941     -0.001740      0.008924
O	     14.66549      8.76518     -8.29421         0.099609      0.029282     -0.011351
O	      2.08633      2.02002     -2.03605        -0.009530      0.010058      0.026552
O	      4.27037      4.08261     -6.34842        -0.009327      0.028996     -0.055782
O	      6.35281      6.10208    -10.37868        -0.006646     -0.049019     -0.010965
O	      6.27663     -0.19163     -4.26905        -0.011813     -0.014539      0.000616
O	      8.39930      1.93386     -8.41599         0.007565      0.016344     -0.000203
O	     10.40498      4.12732    -12.44961         0.012469     -0.013181     -0.026632
O	      4.13840      6.31160      0.14713         0.007565      0.031447      0.049646
O	      6.24056      8.22367     -4.29238        -0.000269     -0.006352     -0.068999
O	      8.42948     10.31853     -8.41235        -0.000215     -0.009579     -0.039142
O	      8.34369      4.07915     -2.20055        -0.004309     -0.036875      0.004866
O	     10.41983      6.20944     -6.35978        -0.008096     -0.001472     -0.057915
O	     12.47444      8.38766    -10.38206         0.003823      0.053081     -0.067977
O	      4.16547      4.45994     -1.87607         0.000708      0.009891      0.011960
O	      6.20353      6.48475     -6.37744        -0.004526      0.033290      0.008824
O	      8.41207      8.57981    -10.43395         0.011830     -0.026157     -0.056626
O	      8.31085      2.19139     -4.06259         0.012680     -0.022704      0.068583
O	     10.42920      4.37269     -8.27963        -0.005119      0.014450     -0.033486
O	     12.41631      6.66146    -12.29701        -0.009520      0.047249     -0.018124
O	      6.19427      8.66826      0.20246        -0.013990     -0.006269      0.048914
O	      8.34312     10.79908     -4.05294        -0.005388      0.016260     -0.004449
O	     10.45110     12.90166     -8.21307         0.001641     -0.015229      0.041810
O	     10.30829      6.49338     -1.98367        -0.021411     -0.040006      0.062967
O	     12.35083      8.61683     -6.15242         0.005853     -0.024144      0.040882
O	     14.49627     10.92701    -10.19621         0.009866      0.053146      0.048854
