# total energy = -909.92597051 eV
 
CRYSTAL
PRIMVEC
4.169373 8.523487 4.118580 
8.411490 -4.297417 -4.136949 
6.297215 6.378439 -0.013203 
PRIMCOORD
136 1
Li	      4.26061      2.14636     -2.03149        -0.009144     -0.004613     -0.005105
Li	      6.28202      4.14738     -6.27423         0.014581     -0.028714      0.010702
Li	      8.42155      6.32581    -10.33386        -0.004353      0.001301     -0.014101
Li	      8.42309      0.00398     -4.18194        -0.003352     -0.003051      0.008437
Li	     10.69712      1.96781     -8.41006        -0.005116     -0.031341     -0.010125
Li	      6.32820      6.48688      0.00238        -0.007171      0.002403     -0.002775
Li	      8.34314      8.43602     -4.23509         0.011461     -0.010414      0.004252
Li	     10.51659     10.55838     -8.27306         0.011170      0.009390     -0.012394
Li	     10.50307      4.27650     -2.08151        -0.001168      0.002080     -0.000286
Li	      8.34161      8.48601     -0.02857        -0.001626      0.000225      0.005344
Li	     10.40363     10.56127     -4.15749         0.005151     -0.015659     -0.014820
Li	      8.41797      4.33347    -12.33429        -0.007833      0.012443     -0.001119
Li	      8.41693     -2.10982     -6.18856         0.000778     -0.005085     -0.007272
Li	     16.67756     10.53384    -10.31805         0.004966      0.013747     -0.001737
Li	      6.27624      4.16633     -2.09593         0.008250     -0.008273     -0.000199
Li	      8.36577      6.36426     -6.25294         0.007249      0.000203      0.014323
Li	     10.53094      8.54126    -10.28262         0.002544      0.017543     -0.003355
Li	     10.57331      2.12745     -4.15645        -0.005828     -0.003652      0.000434
Li	      6.21061      2.00348     -4.16655         0.008992     -0.006092      0.018978
Li	      8.37606      4.27686     -8.21433        -0.003888     -0.005159      0.000245
Li	     10.52505      6.41777    -12.31108        -0.000578      0.021559     -0.011066
Li	     10.53413     -0.11149     -6.18754        -0.014863     -0.002338     -0.002452
Li	     14.58076      4.38965    -14.30965        -0.000806      0.009559     -0.001799
Li	      8.29433      6.32755     -2.09566         0.007983     -0.013730     -0.000633
Li	     10.45213      8.47689     -6.18142        -0.003134     -0.002583      0.007435
Li	     12.63522     10.58308    -10.24342        -0.000356      0.008297      0.004222
Li	     12.59869      4.26793     -4.15947         0.002864      0.006098      0.001934
Li	     16.64754      8.46910    -12.33791         0.006180      0.010742      0.002476
Mn	      8.37082      4.17208     -4.21667         0.006266      0.027817      0.018003
Mn	     10.48070      6.39556     -8.26061         0.003536     -0.016769      0.016369
Mn	     12.65606      8.50813    -12.27300         0.010622      0.006394     -0.010804
Mn	      4.23543      6.36297     -2.04420        -0.004086     -0.013758     -0.009569
Mn	     14.57953      4.18644    -10.34201         0.002655      0.029765      0.042759
Mn	     16.73209      6.32203    -14.38556        -0.001638      0.016670     -0.004798
Mn	     10.39804      8.43995     -2.12532         0.009124     -0.010671      0.015141
Mn	      8.34680      2.20016    -10.28902        -0.034309      0.008370      0.000832
Mn	     10.53038      4.28011    -14.33449         0.003234      0.009813     -0.013019
Mn	     14.65281      6.32635     -4.14753        -0.005182     -0.015463      0.008735
Mn	     16.66712      8.46953     -8.22482        -0.023089      0.011765      0.002969
Mn	     14.65239      2.09238    -16.44713        -0.011079      0.022057     -0.023765
Mn	      2.10921      2.13950      0.04672         0.003789     -0.001372     -0.022607
Mn	      4.17746      4.19476     -4.21491        -0.003884     -0.006357      0.031973
Mn	      6.18282      6.40345     -8.25188         0.012405     -0.001821     -0.019195
Mn	      6.32906      0.00792     -1.98572        -0.012395     -0.017988     -0.009190
Mn	      8.43956      2.05759     -6.24264         0.004437     -0.005412     -0.008912
Mn	     10.64899      4.23459    -10.30557        -0.039779     -0.017869     -0.008314
Mn	      4.19371      6.39777      2.10296         0.006836      0.009428     -0.011823
Mn	      6.22376      8.52380     -2.21534         0.006769      0.010236      0.035003
Mn	      8.16509     10.68849     -6.20951         0.028901      0.015277     -0.011331
Mn	      8.38373      4.27930      0.01457        -0.012980     -0.026892     -0.006548
Mn	     10.51194      6.35541     -4.21750        -0.003885      0.005449      0.025244
Mn	     12.74520      8.43746     -8.18706        -0.033927      0.012418     -0.007685
Mn	      2.13723      0.05392     -2.04189        -0.003971      0.010559     -0.041406
Mn	      8.33491     10.58232     -2.16057        -0.032350      0.003142      0.012960
Mn	      6.28355      4.25701    -10.29779        -0.005109     -0.021214     -0.026112
Mn	      6.29556     -2.10224     -4.17099         0.005799      0.018222     -0.010553
Mn	     12.66543      8.48949     -4.23153         0.007856     -0.011606     -0.000465
Mn	     10.57104      2.11680    -12.34425        -0.019913     -0.007933     -0.015120
Mn	      4.25492      4.29577      0.02569         0.000150     -0.024681     -0.022467
Mn	      6.25761      6.29155     -4.27529        -0.000976     -0.020543      0.028899
Mn	      8.40015      8.48529     -8.26067        -0.000442      0.021018     -0.028553
Mn	      8.40455      2.12235     -2.14315        -0.013815      0.005342     -0.012694
Mn	     10.66242      4.27074     -6.32420        -0.020874     -0.026689      0.000787
Mn	     12.69290      6.37908    -10.30992         0.015412      0.007038     -0.009256
O	      4.33358     -0.16888     -2.00565         0.018898     -0.003888      0.002836
O	      6.15719      1.88168     -6.27045        -0.057953      0.023265     -0.008774
O	      8.24103      4.17121    -10.27576        -0.046662      0.025029     -0.000210
O	      8.51211     -2.34087     -4.11952         0.024222     -0.018089     -0.005231
O	     10.64237     -0.22934     -8.19080         0.028807      0.006466     -0.006228
O	     12.49753      1.87074    -12.41475        -0.049713     -0.026148      0.008221
O	      6.42706      4.07186      0.04414         0.018383     -0.005749      0.003695
O	      8.36628      6.13802     -4.20929         0.037158      0.011957      0.005199
O	     10.36304      8.35157     -8.23223        -0.049743     -0.014144     -0.003033
O	     10.60611      1.92452     -2.06198         0.027783     -0.005432     -0.011643
O	     12.72896      3.96612     -6.14761         0.005800     -0.053858     -0.015699
O	     14.57792      6.08353    -10.28862        -0.089026     -0.035268      0.001456
O	      6.23897      1.97464     -2.00031        -0.010646      0.010902      0.006430
O	      8.34991      4.01713     -6.18717        -0.017990      0.013648     -0.024854
O	     10.60891      6.22387    -10.25150         0.002402      0.016809      0.025658
O	     10.44287     -0.20171     -3.99451        -0.027792     -0.000191     -0.002594
O	     12.65661      1.83691     -8.11514        -0.039293      0.020992      0.045756
O	     14.85569      4.02289    -12.35646         0.023311      0.021687      0.007871
O	      8.29452      6.24207      0.07401        -0.013847      0.002116      0.001495
O	     10.38192      8.31241     -4.10311        -0.019438     -0.006741     -0.026377
O	     12.74033     10.42926     -8.26047         0.056277     -0.010626     -0.062049
O	     12.50379      4.06538     -1.92254        -0.020515      0.002137      0.007933
O	     14.81307      6.15433     -6.08374         0.039630      0.012399     -0.023218
O	     16.92230      8.41000    -10.25440         0.051216      0.083507      0.037438
O	      4.23851      2.21678     -4.27466         0.044319     -0.013215     -0.035929
O	      6.17020      4.39965     -8.32303        -0.015602     -0.011276     -0.010118
O	      8.47456      6.55417    -12.42578         0.009201     -0.010747      0.023908
O	      8.46888      0.10673     -6.32720         0.015436     -0.003828      0.019150
O	     10.33920      2.34019    -10.34894         0.034518      0.009228     -0.015849
O	     12.62025      4.42864    -14.61402         0.041728     -0.006341      0.011292
O	      6.20634      6.48783     -2.11941        -0.048557     -0.000787      0.027759
O	      8.24914      8.59251     -6.30448        -0.017307     -0.082938     -0.026545
O	     10.59261     10.81780    -10.37966         0.015057     -0.002124      0.015066
O	     10.58512      4.39607     -4.33065         0.014061     -0.000021      0.013187
O	     12.41595      6.54062     -8.33555        -0.043663     -0.018039     -0.015550
O	     14.71564      8.72380    -12.58362         0.029969      0.011668      0.014329
O	      4.14182      2.32037      0.06438        -0.032656     -0.013973      0.008501
O	      6.16974      4.34649     -4.21170        -0.009204      0.017718     -0.010676
O	      8.49107      6.52862     -8.31364         0.051171      0.004755      0.010475
O	      8.27524      0.17405     -2.16980         0.001190      0.000979      0.002132
O	     10.68843      2.28611     -6.24150         0.064620      0.008354      0.011727
O	     12.69220      4.47196    -10.35813         0.078088      0.014542      0.000879
O	      6.21766      6.60803      2.12890        -0.034519     -0.013878      0.005025
O	      8.20810      8.61375     -2.16191         0.003440      0.034662     -0.005751
O	     10.53716     10.84632     -6.19823         0.005426      0.033402      0.003773
O	     10.35547      4.43165      0.00917        -0.004889     -0.011965      0.014964
O	     12.51294      6.54468     -4.09434        -0.050870      0.008106     -0.009753
O	     14.79003      8.74336     -8.24243         0.074233      0.026918      0.007050
O	      2.13343      2.01582     -2.13622         0.000706      0.014547     -0.001876
O	      4.27301      3.96836     -6.31860        -0.005517     -0.011590     -0.060983
O	      6.27547      6.22402    -10.29586         0.018611     -0.025783      0.053825
O	      6.28525     -0.14047     -4.30130         0.007717      0.027294     -0.012404
O	      8.43758      1.94702     -8.21089        -0.017115     -0.003408      0.061847
O	     10.41750      4.09716    -12.27764         0.003892     -0.031341      0.034233
O	      4.23653      6.26390     -0.07206        -0.006452      0.023771     -0.067255
O	      6.35288      8.18701     -4.31558        -0.016777      0.007265     -0.090030
O	      8.49255     10.44170     -8.30779         0.005048     -0.053818     -0.026382
O	      8.40971      4.08230     -2.26310         0.000799      0.011803     -0.028018
O	     10.39877      6.21628     -6.34262         0.001747      0.030807     -0.074594
O	     12.55407      8.34753    -10.20961        -0.000614     -0.037995      0.017019
O	      4.21016      4.38319     -1.92457         0.002021      0.046944      0.002146
O	      6.32710      6.49715     -6.32362        -0.002202      0.033903     -0.051115
O	      8.36903      8.63675    -10.19527         0.002830     -0.034734      0.069700
O	      8.41592      2.19490     -4.19240         0.008497     -0.020163     -0.016507
O	     10.39287      4.44487     -8.30033         0.004602      0.041109     -0.022009
O	     12.52757      6.63223    -12.22419         0.001523     -0.012232      0.068819
O	      6.24963      8.65444      0.12896         0.007236     -0.021263      0.022281
O	      8.37946     10.80105     -4.11503        -0.001476      0.026335      0.080835
O	     10.43879     12.94380     -8.11477         0.002777     -0.012716      0.069353
O	     10.43421      6.46473     -2.02290         0.004707     -0.003655      0.017093
O	     12.42760      8.77352     -6.18497        -0.001595     -0.022859     -0.022295
O	     14.69556     10.89407    -10.16654        -0.004490     -0.002830      0.058160
