# total energy = -909.64611204 eV
 
CRYSTAL
PRIMVEC
4.148228 8.525282 4.137666 
8.389041 -4.309913 -4.152402 
6.270722 6.365213 -0.013204 
PRIMCOORD
136 1
Li	      4.28936      2.06918     -2.01228         0.011241     -0.005908     -0.013481
Li	      6.27435      4.15754     -6.29464        -0.002800      0.000011      0.002572
Li	      8.34371      6.39370    -10.42253         0.004809      0.008338     -0.001086
Li	      8.34173     -0.07679     -4.14701         0.007417     -0.000235     -0.016288
Li	     10.61265      2.09166     -8.35449         0.000479     -0.021918      0.009822
Li	      6.31930      6.48751      0.05186         0.021448      0.022613     -0.001741
Li	      8.28450      8.60824     -4.21646         0.011562      0.009824      0.012250
Li	     10.40357     10.63333     -8.32934        -0.002961      0.001109     -0.003478
Li	     10.40036      4.15003     -2.06148         0.000635      0.004329      0.005602
Li	     12.61316      6.27369     -6.34630        -0.001380      0.001606     -0.004169
Li	      4.20171      0.02939     -4.12418        -0.003645      0.005176     -0.000937
Li	     10.38072     10.57282     -4.18484        -0.004440     -0.008210      0.006649
Li	      8.40258      4.29286    -12.35749        -0.005299     -0.010234     -0.004545
Li	     12.43881      6.30157     -2.07655        -0.007993     -0.009764     -0.006290
Li	     14.63630      8.33905     -6.22279        -0.009100     -0.029159      0.005031
Li	      6.29217      4.27169     -2.02286         0.017860      0.012109     -0.002417
Li	      8.30679      6.32754     -6.29134        -0.002236     -0.013255      0.009263
Li	     10.49358      8.51803    -10.37655         0.007498      0.023558      0.007967
Li	     10.42264      1.97811     -4.12954        -0.003294      0.013397     -0.011114
Li	      6.26092      2.02491     -4.15099        -0.004784     -0.001159     -0.009835
Li	      8.31266      4.28891     -8.32217        -0.016877      0.006413      0.013328
Li	     10.50003      6.42077    -12.34324        -0.012310      0.009897     -0.009138
Li	     10.47792     -0.09281     -6.17987        -0.003762     -0.011519      0.004414
Li	     12.55661      2.06593    -10.35414        -0.002695     -0.010913      0.017547
Li	      8.27153      6.32730     -2.04535        -0.003403      0.002245     -0.001760
Li	     10.36267      8.50412     -6.21475         0.003466      0.013579      0.002206
Li	     12.56240     10.77992    -10.26103         0.001924      0.015106     -0.000870
Li	     12.50148      4.17325     -4.08123         0.003515     -0.005335     -0.002354
Mn	      8.31765      4.14734     -4.16349         0.004954     -0.002803     -0.010740
Mn	     10.46044      6.35303     -8.32095         0.011254      0.004883      0.026226
Mn	     12.60380      8.53866    -12.32492         0.002581      0.008949      0.000317
Mn	     12.56634      2.11892     -6.17951         0.004220     -0.016855      0.000347
Mn	     14.61342      4.17939    -10.38337         0.030021     -0.001840     -0.005962
Mn	     16.58345      6.24459    -14.45158         0.018402     -0.007509      0.034870
Mn	     10.36534      8.44817     -2.08991        -0.006665      0.011185      0.006645
Mn	     12.50247     10.59699     -6.20638        -0.015399     -0.045730      0.004144
Mn	     10.51259      4.30928    -14.37444        -0.024314      0.018829      0.008552
Mn	      2.05835      2.08263     -4.05230        -0.002220     -0.028519     -0.012615
Mn	     16.61072      8.39583     -8.31755        -0.012156      0.006383      0.025161
Mn	     18.63704     10.54975    -12.34307         0.019425     -0.005167      0.009384
Mn	      2.02706      2.14821      0.03580         0.009656      0.003340      0.022001
Mn	      4.20467      4.18137     -4.14348         0.019538      0.019398      0.009823
Mn	      6.12380      6.42529     -8.39712         0.013323      0.014870      0.010955
Mn	      6.35643     -0.04518     -1.95054        -0.023532     -0.015121     -0.030732
Mn	      8.38212      2.06286     -6.25165         0.008417      0.013897     -0.015999
Mn	     10.60549      4.19904    -10.33964        -0.019614     -0.032572     -0.003883
Mn	      4.07065      6.39042      2.15887         0.028093     -0.013354     -0.004747
Mn	      6.19590      8.54060     -2.16732         0.012706     -0.007774      0.012623
Mn	      8.21644     10.66343     -6.31899         0.020900      0.014792     -0.002203
Mn	      8.40894      4.23171      0.13528         0.011025      0.012973     -0.005490
Mn	     10.40032      6.36231     -4.17990        -0.016509     -0.011617     -0.005700
Mn	     12.63086      8.47048     -8.32872        -0.024618      0.023743      0.031742
Mn	      2.14231      0.04113     -1.99065        -0.003015     -0.034563     -0.039297
Mn	      8.32013     10.62636     -2.13605        -0.008123      0.030814      0.001173
Mn	     10.39081     12.71379     -6.24571        -0.014568     -0.003898      0.015170
Mn	     10.40162      6.36878     -0.03279        -0.011466      0.006216      0.022584
Mn	      8.41596     -0.03499     -8.32964         0.003271      0.008422     -0.021469
Mn	     10.56338      2.11953    -12.42425        -0.014616      0.003777     -0.027244
Mn	      4.24391      4.32633      0.06484        -0.002722      0.029204      0.005292
Mn	      6.25729      6.30626     -4.23739         0.004698      0.003783      0.014442
Mn	      8.38432      8.41692     -8.36822         0.024972      0.032444     -0.014170
Mn	      8.37379      2.10141     -2.07601         0.000295     -0.018173     -0.011534
Mn	     10.52350      4.25798     -6.31185         0.010468     -0.017785      0.012119
Mn	     12.69905      6.32559    -10.38749         0.009310     -0.009456     -0.006193
O	      4.36196     -0.08394     -1.98535         0.022857      0.025215      0.007195
O	      6.38022      1.90620     -6.25295         0.023489     -0.001303      0.004656
O	      8.21525      4.03341    -10.33618        -0.068219      0.023265      0.005163
O	      8.19723     -2.37819     -4.22712        -0.041021      0.024548     -0.008831
O	     10.60955     -0.26126     -8.27426         0.000133      0.011678      0.002093
O	     12.45429      1.80682    -12.37318        -0.075585     -0.005116      0.013948
O	      6.43120      4.14262      0.08570         0.001379     -0.034137      0.003370
O	      8.31998      6.12611     -4.20542         0.034380      0.009125     -0.004951
O	     10.41107      8.29804     -8.30457         0.022560     -0.054314      0.008428
O	     10.29602      1.90727     -2.13087        -0.050845      0.013062     -0.006024
O	     12.64978      4.04354     -6.12934         0.006785      0.011200     -0.000080
O	     14.60594      6.07664    -10.31953        -0.020286     -0.035612     -0.012638
O	      6.36775      2.00106     -1.97050         0.032998      0.025916     -0.007503
O	      8.29419      4.01841     -6.16062        -0.013161      0.002698     -0.009305
O	     10.63057      6.19672    -10.29164         0.038854      0.025767      0.022650
O	     10.38621     -0.20237     -4.03935        -0.005329     -0.004641      0.012747
O	     12.63660      1.81040     -8.32402        -0.024531      0.016067     -0.013123
O	     14.81485      3.99456    -12.35383        -0.016095     -0.012470      0.028080
O	      8.41954      6.25492      0.00602         0.038563      0.014090     -0.039783
O	     10.32204      8.31601     -4.07755        -0.016034     -0.002777     -0.011918
O	     12.65120     10.49607     -8.17754         0.025704      0.037617     -0.002725
O	     12.44052      4.02723     -1.92769        -0.030712     -0.005051     -0.004865
O	     14.54711      6.17659     -6.00688        -0.024620      0.021973      0.003502
O	     16.82805      8.25744    -10.26879         0.017424      0.012042      0.015829
O	      4.26109      2.21518     -4.23537         0.018010     -0.005030      0.005433
O	      6.17989      4.37918     -8.42842         0.008872     -0.007200     -0.029024
O	      8.42809      6.55019    -12.45106        -0.004858     -0.012599      0.025877
O	      8.46707      0.11942     -6.35478        -0.001511     -0.007384      0.005080
O	     10.53586      2.25403    -10.40728         0.023661      0.002441     -0.022071
O	     12.44709      4.40048    -14.66177         0.009425     -0.000740     -0.060616
O	      6.17744      6.53129     -2.05765         0.037742     -0.004337      0.018424
O	      8.23398      8.66470     -6.23689        -0.029680     -0.003485      0.012633
O	     10.51196     10.82231    -10.37063         0.017755      0.000103     -0.000272
O	     10.49186      4.41691     -4.32302         0.020590     -0.004179     -0.000904
O	     12.40366      6.49898     -8.37874        -0.023722     -0.050199     -0.036696
O	     14.53039      8.66309    -12.55768        -0.020298     -0.026206     -0.046989
O	      4.36510      2.36039      0.02168         0.028655     -0.024750      0.014513
O	      6.16977      4.34676     -4.16724        -0.019460      0.006242      0.007665
O	      8.49122      6.45455     -8.35650         0.063606     -0.031171      0.005406
O	      8.25201      0.20155     -2.15928        -0.016121      0.053573     -0.018269
O	     10.50486      2.28127     -6.25436        -0.030062     -0.002435     -0.003902
O	     12.70494      4.40399    -10.41023         0.056687      0.024771     -0.001444
O	      6.40193      6.61454      2.14985         0.007420     -0.005671      0.002094
O	      8.17105      8.66771     -2.10876        -0.007760      0.000097     -0.003809
O	     10.30843     10.75266     -6.26219        -0.058754      0.031415     -0.006461
O	     10.30459      4.47105     -0.08636        -0.003952      0.050109      0.015699
O	     12.39964      6.51498     -4.12299        -0.036088      0.002923      0.003727
O	     14.65383      8.70733     -8.21433         0.001908      0.031226      0.005677
O	      2.10872      2.03029     -2.03449        -0.016850      0.016183      0.014975
O	      4.18755      4.04960     -6.33959        -0.008528      0.005906     -0.027164
O	      6.36357      6.10444    -10.37962        -0.004728     -0.034307      0.002601
O	      6.28314     -0.18078     -4.28379        -0.010266     -0.023295     -0.025856
O	      8.39177      1.94176     -8.40431        -0.007545     -0.002578     -0.020424
O	     10.44464      4.08311    -12.29173        -0.012511     -0.016584      0.070673
O	      4.15713      6.29872      0.15500         0.000841      0.006941      0.025843
O	      6.33179      8.19388     -4.30470         0.013611      0.000165     -0.075322
O	      8.44520     10.33021     -8.41447        -0.004869      0.004020     -0.015966
O	      8.36155      4.06781     -2.21640         0.002112     -0.032944     -0.017221
O	     10.45376      6.22691     -6.37162         0.001919     -0.001119     -0.081663
O	     12.54382      8.30378    -10.37463         0.017840     -0.019327     -0.050872
O	      4.18167      4.46822     -1.89392         0.010228     -0.000509      0.024148
O	      6.23234      6.49074     -6.38154        -0.002113      0.024154     -0.024270
O	      8.46621      8.57617    -10.44177         0.008227     -0.025614     -0.055579
O	      8.34290      2.19034     -4.07866         0.004375     -0.016047      0.036953
O	     10.35369      4.39525     -8.29730         0.013222      0.026946     -0.022303
O	     12.51010      6.62333    -12.28558         0.011318      0.011843      0.072815
O	      6.23112      8.66252      0.20706         0.001285     -0.025006     -0.007019
O	      8.38448     10.76096     -4.08120        -0.009193      0.000585      0.011861
O	     10.49636     12.89360     -8.21831        -0.017025     -0.018950      0.042109
O	     10.35440      6.48985     -2.02179         0.008956     -0.004854      0.055874
O	     12.51436      8.61053     -6.16136        -0.007805     -0.010852      0.020530
O	     14.54351     10.91062    -10.17128         0.013878     -0.017985      0.084844
