# total energy = -915.25964088 eV
 
CRYSTAL
PRIMVEC
4.107034 8.567104 4.221052 
8.336192 -4.361740 -4.207948 
6.207864 6.317184 -0.013173 
PRIMCOORD
137 1
Li	      4.18794      2.21364     -2.17531         0.010283      0.005777     -0.004037
Li	      8.24823      6.46043    -10.40266         0.002395      0.004707     -0.012711
Li	     10.40677      2.02400     -8.38960         0.013701      0.007093     -0.014245
Li	     12.51476      4.16568    -12.54065        -0.001529      0.000230      0.000702
Li	      6.25066      6.34280     -0.01912        -0.002927      0.002361     -0.009924
Li	     10.32921     10.59355     -8.35763        -0.009414     -0.005688     -0.014713
Li	     12.45722      6.20372     -6.28626        -0.001805     -0.003022     -0.006322
Li	     14.58306      8.49134    -10.44680         0.000199     -0.005763     -0.000221
Li	      4.23398      0.09823     -4.17434         0.000801      0.014161      0.010098
Li	     10.30373     10.54385     -4.09113        -0.001327     -0.006067      0.013497
Li	     12.40416     12.73846     -8.31686        -0.001738      0.011710     -0.005737
Li	      8.30116     -2.20706     -6.27362         0.005532      0.017458     -0.004279
Li	     10.40618     -0.07935    -10.46935        -0.000546     -0.002269     -0.005774
Li	     12.57765      2.14377    -14.61291        -0.005425      0.001260     -0.009530
Li	      6.19844      4.11275     -2.10148         0.002614      0.006207      0.004809
Li	      8.23541      6.33306     -6.21422         0.006534     -0.013855     -0.004772
Li	     10.34950      8.41603    -10.39336         0.001728     -0.010859     -0.004401
Li	     10.34586      2.07436     -4.12110         0.000378      0.003704     -0.002310
Li	     12.44643      4.00933     -8.35359        -0.005376      0.004141      0.002983
Li	     14.49068      6.12595    -12.55372         0.001452     -0.002121      0.004032
Li	      8.18372      4.19266     -8.24046         0.012861      0.000008      0.002104
Li	     10.36666      6.23130    -12.50633         0.001438      0.000417      0.011319
Li	     10.32820     -0.14812     -6.22338         0.007133     -0.005540      0.018325
Li	      8.28165      6.37732     -2.05293         0.005329      0.002455      0.000556
Li	     10.26443      8.40246     -6.16364        -0.001785     -0.005025      0.004775
Li	     12.41092     10.49100    -10.43957        -0.004907      0.004255      0.018326
Li	     12.34162      4.13694     -4.07512        -0.001319     -0.000280      0.016776
Li	     14.53797      6.23146     -8.28635         0.005330      0.001319      0.008192
Li	     16.55335      8.33591    -12.55115        -0.003024     -0.011136      0.001753
Mn	      8.23405      4.20848     -4.12446        -0.017168     -0.021805      0.026139
Mn	     10.31619      6.26503     -8.30235         0.003831     -0.018917     -0.012608
Mn	     12.40859      8.35839    -12.47666         0.000734     -0.032646      0.021053
Mn	      4.11296      6.34833     -2.01799         0.000359     -0.000076      0.010909
Mn	     14.49850      4.12837    -10.35321        -0.029177     -0.022349      0.010121
Mn	     16.49848      6.15524    -14.61977         0.004977      0.002590     -0.000432
Mn	      6.22469     -0.06075     -6.22259        -0.013290      0.012338      0.023713
Mn	     12.32978     10.56285     -6.21823         0.038094      0.009869     -0.006138
Mn	      8.25594      6.37854      2.11163         0.021745      0.002411      0.004387
Mn	     14.45538      6.34499     -4.16553         0.012116     -0.027873      0.000035
Mn	      4.15753      4.22018     -8.26029        -0.007487     -0.002862      0.035908
Mn	     12.38377      4.12193     -0.03537         0.013724      0.020090     -0.015122
Mn	      2.03594      2.09744      0.01138         0.006034     -0.024905     -0.004229
Mn	      4.23328      4.28692     -4.26760        -0.012750     -0.009917      0.011180
Mn	      6.16535      6.34399     -8.26272         0.006301      0.006663     -0.011869
Mn	      6.28018     -0.00761     -2.18573         0.011466      0.011001      0.023094
Mn	      8.26009      2.02975     -6.16096        -0.000923     -0.011713     -0.003164
Mn	     10.39862      4.15150    -10.41755         0.011176      0.012841     -0.002568
Mn	      4.12636      6.34629      2.10518        -0.009722      0.013387      0.004609
Mn	      6.25690      8.55100     -2.05942        -0.005173      0.002013      0.016944
Mn	      8.27166     10.57689     -6.16655        -0.011463     -0.014992      0.002325
Mn	      8.33891      4.26279     -0.03841        -0.001548     -0.011080      0.006642
Mn	     10.32788      6.32496     -4.09544        -0.010178     -0.022484     -0.006211
Mn	     12.41870      8.44311     -8.30987        -0.002424     -0.025255     -0.029484
Mn	      2.13126      0.02999     -2.13524        -0.006238      0.049068      0.002944
Mn	      4.23928      2.12579     -6.25651        -0.002871      0.019333      0.000054
Mn	     10.34808     12.74865     -6.24568        -0.007238      0.039987     -0.007373
Mn	      6.34780     -2.18134     -4.22532         0.008799      0.008005     -0.001028
Mn	      8.33476     -0.08016     -8.38751        -0.010420     -0.003431      0.013453
Mn	     10.43087      2.03557    -12.54652         0.006210      0.015368      0.007880
Mn	      4.17058      4.22839     -0.00383        -0.023106     -0.027650     -0.026017
Mn	      6.28046      6.43765     -4.13571         0.001190     -0.022104     -0.000694
Mn	      8.24569      8.48182     -8.37659         0.005248      0.003927     -0.027929
Mn	      8.33890      2.14470     -2.12128        -0.001669     -0.006907     -0.011847
Mn	     10.35917      4.14720     -6.26863         0.003000      0.001686      0.003642
Mn	     12.50346      6.34321    -10.40427        -0.014139      0.004931     -0.020978
O	      4.24868     -0.23074     -2.13586         0.028477     -0.041099     -0.000672
O	      6.34235      1.84415     -6.31670         0.039230     -0.034448      0.002372
O	      8.21046      3.95201    -10.47752        -0.062593     -0.022775     -0.000157
O	      8.43394     -2.52275     -4.33775         0.032789      0.003161      0.003482
O	     10.30163     -0.25039     -8.38975        -0.064219     -0.012446      0.000751
O	     12.56543      1.81374    -12.62149         0.003282     -0.000385     -0.002365
O	      6.18271      4.06112     -0.01361        -0.022770      0.024527      0.001075
O	      8.27127      6.16087     -4.15128        -0.051561     -0.016485     -0.000552
O	     10.44628      8.24563     -8.28192         0.024406      0.019833      0.012091
O	     10.47938      1.77665     -2.10996         0.031961      0.002884      0.001441
O	     12.33420      3.99984     -6.22225        -0.056142      0.012893      0.007278
O	     14.63068      6.11798    -10.40730         0.041876     -0.016275      0.002705
O	      6.14162      1.93968     -1.89203        -0.016916      0.009491     -0.003270
O	      8.40102      4.05949     -6.16244         0.011667      0.030827      0.018993
O	     10.32261      6.17458    -10.27892        -0.028398      0.051911      0.008284
O	     10.53966     -0.25366     -4.11799         0.035406      0.027975     -0.010647
O	     12.53639      1.93641     -8.15883         0.016934      0.056934      0.001206
O	     14.42847      3.95988    -12.29147        -0.006812      0.009642      0.026214
O	      8.20906      6.20230      0.14683        -0.022496      0.000907      0.021923
O	     10.51175      8.38488     -4.06251         0.050646      0.076330     -0.002272
O	     12.29375     10.41589     -8.16930        -0.015031      0.028931      0.037844
O	     12.50282      3.93587     -2.00868        -0.039508     -0.010591     -0.014047
O	     14.42949      6.17143     -6.12092        -0.019040      0.050491      0.043187
O	     16.67463      8.21358    -10.33025         0.030572      0.011106     -0.015991
O	      3.95631      2.23699     -4.25346        -0.033662     -0.050840      0.019749
O	      6.28154      4.37803     -8.54686         0.016396     -0.028609     -0.045592
O	      8.38392      6.44417    -12.66201         0.021980     -0.002997     -0.009640
O	      8.30937      0.04807     -6.44863         0.006036     -0.029039     -0.058476
O	     10.16659      2.12426    -10.54401        -0.060623     -0.056576      0.007500
O	     12.32155      4.27743    -14.70515        -0.050008     -0.025040      0.013354
O	      6.28779      6.56956     -2.14865         0.020048     -0.044123     -0.022239
O	      8.19675      8.61809     -6.38344        -0.015630     -0.014968      0.026163
O	     10.44717     10.70580    -10.52443         0.006836     -0.002224     -0.004709
O	     10.29020      4.28758     -4.33720        -0.015636     -0.055943     -0.037564
O	     12.53800      6.48955     -8.43378         0.017222     -0.001653      0.019571
O	     14.57973      8.63443    -12.60572         0.019595      0.009777      0.005679
O	      4.04811      2.29167      0.01525        -0.020804      0.040591      0.002566
O	      6.29074      4.50978     -4.07580         0.070385      0.016365      0.004016
O	      8.13932      6.50171     -8.31593        -0.031270      0.001161      0.007023
O	      8.20754      0.21292     -2.00946        -0.027808     -0.001868      0.006524
O	     10.26223      2.19674     -6.25814        -0.022077      0.017621     -0.003724
O	     12.51945      4.39157    -10.35771         0.063384     -0.017520     -0.000754
O	      6.24863      6.57452      2.11879         0.040715     -0.045123     -0.001167
O	      8.34545      8.71893     -1.94584         0.029179     -0.013377     -0.002581
O	     10.32570     10.74208     -6.18575         0.032872      0.007353     -0.008352
O	     10.29975      4.41853      0.10752        -0.049184     -0.000685      0.000611
O	     12.46667      6.50851     -4.14218         0.061734      0.037064      0.003004
O	     14.40017      8.65392     -8.34590        -0.020059     -0.001413     -0.001917
O	      2.08683      2.02403     -2.22323        -0.001831      0.028824     -0.050430
O	      4.04537      4.03493     -6.30976        -0.007267      0.001053     -0.035879
O	      6.25895      6.08045    -10.59293        -0.009186     -0.043709      0.003812
O	      6.21448     -0.27276     -4.28618        -0.008000      0.014464     -0.048931
O	      8.32619      1.86966     -8.49012        -0.013767     -0.015814     -0.045310
O	     10.41195      4.01741    -12.60658        -0.007048     -0.002010     -0.058189
O	      4.17362      6.20160     -0.06999        -0.006826     -0.030287     -0.025881
O	      6.13820      8.39738     -4.18051         0.007626     -0.009137     -0.063986
O	      8.27298     10.43939     -8.42926        -0.002167      0.006477     -0.000885
O	      8.21479      4.10695     -2.17137        -0.005454      0.024305     -0.062903
O	     10.37580      6.12487     -6.33704        -0.008670     -0.028740     -0.024477
O	     12.47244      8.31525    -10.51705         0.009605      0.016495     -0.016838
O	      4.11237      4.35269     -1.99152         0.014609     -0.017423      0.032980
O	      6.26379      6.60432     -6.05567         0.005348      0.042986      0.030026
O	      8.33691      8.56550    -10.32506        -0.010062     -0.008839      0.026722
O	      8.35573      2.31795     -4.06109        -0.016469      0.038387      0.005976
O	     10.32046      4.26710     -8.24899         0.013290     -0.014059      0.061799
O	     12.41850      6.38757    -12.36052         0.009574     -0.020820      0.008358
O	      6.13718      8.73811      0.12513         0.006331      0.029678      0.020404
O	      8.25670     10.85673     -4.00442         0.019714      0.003234      0.004686
O	     10.29114     12.81098     -8.22350         0.001854     -0.038887      0.054478
O	     10.33003      6.57693     -1.98801        -0.001242      0.024375      0.016812
O	     12.36935      8.61409     -6.12040         0.000931      0.025637      0.052698
O	     14.44530     10.73847    -10.29660         0.003124      0.028361      0.000430
