# total energy = -920.26714703 eV
 
CRYSTAL
PRIMVEC
4.091108 8.536952 4.212557 
8.362016 -4.363579 -4.221179 
6.222847 6.304479 -0.013177 
PRIMCOORD
138 1
Li	      6.21987      4.19471     -6.27759        -0.005205     -0.004055     -0.010110
Li	      8.34133      6.30602    -10.49612        -0.006435     -0.004432     -0.007216
Li	      8.35822     -0.07360     -4.28238        -0.010968      0.004044      0.000245
Li	     10.47436      2.00778     -8.38854        -0.004835     -0.015918     -0.014342
Li	     12.50777      4.15998    -12.55346        -0.002093      0.008922      0.000333
Li	      8.22355      8.58785     -4.11389         0.013302      0.004970     -0.011589
Li	     10.39159     10.68118     -8.44350         0.003855     -0.009006      0.004139
Li	     10.43716      4.19946     -2.18028         0.010906     -0.015360      0.002923
Li	     12.50093      6.28564     -6.25975        -0.006483      0.003637     -0.007981
Li	      4.13680      0.03648     -4.16603         0.001972      0.015586     -0.002922
Li	      6.23793      2.05278     -8.34182         0.007079     -0.003291     -0.001368
Li	     12.39943     12.55499     -8.36793         0.016280     -0.006638      0.002188
Li	     12.41282      6.13896     -2.12782        -0.000320     -0.012160     -0.002049
Li	     14.46863      8.22022     -6.30271        -0.000087      0.004655      0.002687
Li	     16.53988     10.39142    -10.42416        -0.006962     -0.017894     -0.005921
Li	      6.19359      4.15935     -2.05336        -0.008969     -0.007074     -0.001837
Li	      8.28373      6.28321     -6.26751         0.001477     -0.004048     -0.005095
Li	     10.42157      8.55135    -10.45022         0.002784      0.016449      0.002537
Li	     10.43812      2.11085     -4.23251        -0.000723      0.008501      0.013501
Li	     12.57700      4.26208     -8.37736        -0.002073      0.001700     -0.000528
Li	     14.58113      6.40807    -12.51166        -0.012861      0.000175     -0.001465
Li	      6.16487      2.06095     -4.14678         0.011015      0.007113      0.004872
Li	      8.29889      4.07174     -8.35103        -0.001960     -0.008645      0.000013
Li	     10.36005      6.38721    -12.56150         0.012271      0.014977      0.011561
Li	     10.43556     -0.20458     -6.29058        -0.002302     -0.004998     -0.000149
Li	     12.44337      1.85855    -10.48277         0.002069     -0.000149      0.003161
Li	     14.51886      4.04784    -14.61783        -0.012086      0.004207      0.007439
Li	      8.17268      6.33629     -1.98396         0.013703      0.001721      0.006490
Li	     10.34852      8.35397     -6.26847         0.003307      0.005130      0.001347
Li	     16.58992      8.29700    -12.52637        -0.002930      0.005418     -0.006722
Mn	      8.24499      4.12127     -4.17944        -0.002643     -0.026760      0.002589
Mn	     10.34326      6.29669     -8.36863         0.023447      0.001965      0.009406
Mn	     12.43209      8.35386    -12.50828        -0.009010      0.004202      0.022609
Mn	      4.14237      6.38327     -1.99545        -0.011230     -0.012643      0.039336
Mn	      6.16862      8.38764     -6.26850        -0.010897      0.014507      0.004632
Mn	     10.35567     -0.07848     -2.12919         0.014831     -0.007746      0.018136
Mn	     10.29862      8.40571     -2.04627        -0.003785     -0.005341      0.002393
Mn	     12.38871     10.48846     -6.22665         0.004228     -0.017233     -0.007312
Mn	     14.43970     12.66281    -10.41082        -0.023909     -0.022900      0.023444
Mn	     10.38657     -2.26679     -8.32180        -0.000226     -0.033002      0.014891
Mn	     16.49704      8.30550     -8.37393        -0.014151     -0.010485      0.002873
Mn	     10.29715     14.78341     -8.28238         0.007770     -0.032566     -0.032420
Mn	      2.09092      2.16328     -0.01865        -0.012762     -0.009915     -0.001782
Mn	      4.15116      4.17484     -4.11802         0.005481     -0.019934     -0.006898
Mn	      6.22399      6.25711     -8.35704        -0.003237      0.007215      0.002374
Mn	      6.24551     -0.05481     -2.10589        -0.005174      0.009374      0.003117
Mn	      8.32647      2.04350     -6.28160         0.006232      0.001686     -0.006884
Mn	     10.39449      4.16618    -10.47135         0.004274     -0.017597     -0.003809
Mn	      4.22361      6.44312      1.98986         0.013030     -0.003815      0.017664
Mn	      6.15356      8.50281     -1.99627         0.001656      0.008432      0.008094
Mn	      8.23315     10.56864     -6.22496        -0.004746      0.001994      0.001253
Mn	      8.26153      4.14260      0.09952        -0.021125      0.001527     -0.014681
Mn	     10.35734      6.31944     -4.16815        -0.003387     -0.002754      0.001533
Mn	     12.46774      8.44920     -8.45039         0.018723      0.017515      0.012945
Mn	      2.16116      0.07157     -2.10159         0.003209     -0.006873     -0.032434
Mn	      8.23681     10.63919     -2.11181        -0.001581      0.002070     -0.011929
Mn	      6.28000      4.15163    -10.46602        -0.007484     -0.024838     -0.026172
Mn	     10.36299      6.29160      0.00374        -0.006967     -0.005295     -0.015402
Mn	      8.37573     -0.05539     -8.37571         0.003234      0.005245     -0.017117
Mn	     10.42012      2.03743    -12.60126         0.002965      0.000802     -0.009562
Mn	      4.21548      4.26448      0.00154         0.013728      0.019943     -0.007176
Mn	      6.22855      6.33840     -4.19868        -0.003596      0.018671      0.011967
Mn	      8.31440      8.51437     -8.38634        -0.008941      0.028257      0.002724
Mn	      8.36341      2.06410     -2.13283        -0.003490      0.024782      0.006207
Mn	     10.45657      4.21938     -6.28713         0.000600      0.001820      0.028425
Mn	     12.55362      6.28368    -10.48213         0.014967      0.026882     -0.014044
O	      4.24210     -0.22778     -2.10844         0.007679      0.001373      0.001744
O	      6.35578      1.84643     -6.27117         0.014403      0.030095      0.004272
O	      8.29311      3.96978    -10.48631        -0.020050      0.056313     -0.001878
O	      8.27031     -2.41474     -4.16714        -0.028410      0.050603     -0.002742
O	     10.54870     -0.27514     -8.37680         0.020815      0.005389     -0.004929
O	     12.58899      1.74955    -12.59161         0.037104      0.023687      0.002984
O	      6.33525      3.95180     -0.06328         0.029445      0.020183     -0.002098
O	      8.22457      6.11423     -4.20847        -0.057178      0.069199     -0.004350
O	     10.46249      8.24129     -8.40341         0.011666     -0.020478      0.008833
O	     10.32766      1.88189     -2.16039        -0.059761     -0.013533      0.004673
O	     12.58573      3.97178     -6.38984         0.006437      0.003931      0.000985
O	     14.65827      5.94972    -10.58876         0.023219      0.015753     -0.006122
O	      6.41298      1.93682     -2.02070         0.027904      0.061781     -0.018760
O	      8.19756      4.00850     -6.14585        -0.021304      0.031323     -0.018578
O	     10.28696      6.10536    -10.32305        -0.026580      0.020501      0.020472
O	     10.30954     -0.26612     -4.08078        -0.030080      0.025188      0.020566
O	     12.57472      1.82027     -8.30077         0.052110      0.038586     -0.036243
O	     14.50239      3.84242    -12.48517        -0.027527      0.006860     -0.027406
O	      8.41359      6.18493      0.11653         0.028568      0.057051      0.001678
O	     10.23699      8.28043     -4.01684        -0.025342      0.027102     -0.011491
O	     12.34354     10.40564     -8.15504        -0.031196      0.029650     -0.006878
O	     12.46080      4.05786     -1.88625        -0.019109      0.045561      0.012527
O	     14.42633      6.11322     -6.04887        -0.021523      0.015828     -0.017583
O	     16.76093      8.22065    -10.37279         0.022084      0.045462     -0.029384
O	      4.19237      2.23217     -4.37242         0.035344     -0.031967      0.010939
O	      6.33721      4.31584     -8.48633         0.018863     -0.015209      0.013377
O	      8.37340      6.52609    -12.62887         0.031728     -0.018526      0.026156
O	      8.42806      0.09174     -6.40075         0.020185     -0.028872      0.031354
O	     10.45949      2.22912    -10.57719         0.037801     -0.005705      0.021741
O	     12.43873      4.24738    -14.74671         0.021529     -0.049581     -0.027967
O	      6.27025      6.52940     -2.28449         0.023377     -0.038427     -0.034044
O	      8.36222      8.60492     -6.42132         0.042241     -0.020649     -0.003092
O	     10.15559     10.69530    -10.52669        -0.050345     -0.069753      0.038343
O	     10.32531      4.36118     -4.31657         0.040273      0.008005      0.014522
O	     12.29414      6.40183     -8.47473        -0.040312     -0.045411      0.033942
O	     14.62204      8.48573    -12.74307         0.039252     -0.033160     -0.042405
O	      4.07549      2.29159      0.09699        -0.040739     -0.014577      0.002944
O	      6.12577      4.35243     -4.14905        -0.025770      0.025338     -0.004479
O	      8.32771      6.50575     -8.35113         0.027125     -0.055069      0.002427
O	      8.35360      0.08846     -2.09360         0.036986      0.008495     -0.005197
O	     10.31011      2.26237     -6.30136        -0.018222     -0.037991     -0.014547
O	     12.38998      4.30247    -10.46722        -0.040965     -0.005444      0.005056
O	      6.28125      6.66315      2.21092         0.066372     -0.020882      0.019810
O	      8.12332      8.65880     -2.04687         0.004971     -0.030604      0.002340
O	     10.24235     10.75734     -6.22694        -0.034037      0.015432     -0.007845
O	     10.26801      4.34789      0.04508        -0.021092      0.022923     -0.006260
O	     12.36529      6.53941     -4.13290        -0.033386     -0.030291      0.003516
O	     14.39143      8.65766     -8.27987        -0.019415     -0.007431      0.002502
O	      1.96445      2.02101     -2.14398        -0.016867      0.024447     -0.006284
O	      4.14358      4.07127     -6.40918         0.000219      0.030636     -0.003812
O	      6.28207      6.11398    -10.54016        -0.003253     -0.013783     -0.007433
O	      6.28748     -0.27745     -4.29597         0.006757     -0.024346     -0.010458
O	      8.36509      1.91665     -8.48516        -0.007463      0.028009     -0.017195
O	     10.42267      4.01538    -12.65153         0.007050      0.037238     -0.034011
O	      4.04610      6.17727     -0.04476        -0.014633     -0.000154     -0.011503
O	      6.24192      8.24605     -4.32909        -0.005732     -0.035502      0.021291
O	      8.29209     10.49609     -8.48397        -0.012137      0.034906     -0.047456
O	      8.34745      3.99988     -2.22993        -0.009024     -0.013659      0.004969
O	     10.39369      6.20192     -6.38188        -0.012109      0.035819     -0.053557
O	     12.39537      8.17329    -10.56333        -0.013504      0.002619      0.003983
O	      4.12812      4.45212     -1.95472         0.004774     -0.013242     -0.006642
O	      6.18116      6.40342     -6.17846         0.013229     -0.035681      0.039266
O	      8.21238      8.63153    -10.33703        -0.010612      0.006529      0.005681
O	      8.28375      2.14266     -4.08780         0.002219     -0.048235      0.055167
O	     10.33356      4.34651     -8.26855         0.000632      0.013906     -0.004968
O	     12.45107      6.37945    -12.47532         0.010655     -0.020854      0.003482
O	      6.25775      8.73639      0.19849         0.012767     -0.000696      0.019282
O	      8.31715     10.72419     -4.06607         0.005725     -0.024385      0.001467
O	     10.31987     12.79642     -8.23962         0.007892     -0.049602      0.013719
O	     10.30791      6.40395     -1.97046        -0.000630     -0.030275      0.060217
O	     12.38905      8.53133     -6.12419        -0.001012     -0.039248      0.003146
O	     14.55955     10.76671    -10.32702         0.007156      0.036774     -0.014908
