# total energy = -93.27687385 eV
 
CRYSTAL
PRIMVEC
-2.069039 4.244300 -2.068718 
2.010511 4.185506 2.009523 
2.047996 0.030102 -6.125838 
PRIMCOORD
16 1
Li	      0.02342      4.24090     -4.16168         0.008988      0.008694     -0.000820
Li	      1.98728      6.34154     -4.11170         0.005494     -0.006657     -0.013174
Li	      1.97377      4.24263     -6.10701        -0.013111      0.005496     -0.001300
Li	     -0.00405      2.12805     -2.06796        -0.013015     -0.005734      0.023680
Mn	      0.00087      0.00097     -0.00112         0.021523     -0.005997     -0.016993
Mn	     -0.00907      6.33770     -2.11992         0.008606      0.001824     -0.014797
Ni	      2.00101      4.21786     -2.05902        -0.042093     -0.005906      0.049926
Ni	      1.99450      2.12201     -4.05978        -0.025034      0.005582      0.021128
O	     -0.02726      4.31987     -6.27106         0.093429     -0.115438     -0.049178
O	      1.91083      6.26941     -2.07128        -0.119245      0.117645     -0.001932
O	      2.13562      4.16921     -4.10610         0.049507      0.121707     -0.116090
O	      2.00436      4.03056      0.03644         0.009794     -0.000937      0.104917
O	      2.00966      2.16660     -1.96977         0.010877     -0.129584      0.122882
O	     -0.03823      6.48753     -0.13817         0.081865      0.003870     -0.023602
O	     -0.09546      4.40024     -2.06830        -0.110172      0.013876      0.009362
O	      0.07782      1.94410     -0.01778         0.032587     -0.008442     -0.094008
