# total energy = -925.62887736 eV
 
CRYSTAL
PRIMVEC
4.124764 8.486131 4.199211 
8.426915 -4.333333 -4.212215 
6.271707 6.287568 -0.013075 
PRIMCOORD
139 1
Li	      4.16459      2.16997     -2.06524        -0.005972     -0.005264     -0.008910
Li	      6.36906      4.22466     -6.36319        -0.001016      0.018532     -0.002673
Li	      8.46458     -0.04483     -4.23582        -0.003063     -0.013651      0.008534
Li	     12.60489      4.15135    -12.59726         0.006417      0.000948     -0.014188
Li	      6.25311      6.32917     -0.01608         0.002565     -0.017553     -0.000327
Li	      8.38481      8.39300     -4.21701        -0.006276      0.010087      0.003498
Li	     10.48229     10.46965     -8.32352        -0.017062      0.009742     -0.006480
Li	     10.50711      4.14847     -2.10158        -0.003899     -0.010617     -0.008518
Li	     12.52457      6.31315     -6.29543         0.014863     -0.006349     -0.009161
Li	     14.68398      8.38469    -10.45803         0.002249     -0.024057     -0.006489
Li	      4.26039     -0.05129     -4.21585        -0.001215      0.017442      0.004918
Li	     10.48417     10.48000     -4.23139        -0.004507     -0.005699     -0.001353
Li	      8.41270      4.28825    -12.53367        -0.001583      0.003939     -0.007417
Li	      8.50466     -2.11954     -6.32038         0.013667      0.001748     -0.000980
Li	     10.54943     -0.00625    -10.46038         0.006989      0.018022     -0.003779
Li	     16.73560     10.43492    -10.49103        -0.007747     -0.005322     -0.011398
Li	      6.26513      4.18285     -2.04744        -0.001807     -0.020253      0.005241
Li	      8.34573      6.36740     -6.26144         0.000096      0.032079      0.003360
Li	     10.34120      8.28264    -10.45110        -0.008793     -0.012223      0.003766
Li	     10.43033      1.83449     -4.21021        -0.009104     -0.015156      0.006323
Li	     12.49903      4.07253     -8.30554         0.004295     -0.000272     -0.003899
Li	     14.64362      6.20266    -12.54467         0.000345     -0.012578     -0.007417
Li	      6.29762      1.97889     -4.18948        -0.008285      0.007110      0.001029
Li	     10.39678      6.18535    -12.48718         0.011794      0.001382     -0.008902
Li	     12.55412      1.94041    -10.40073        -0.002934      0.000682      0.001062
Li	     14.69586      3.98813    -14.62982        -0.001086     -0.000094     -0.014461
Li	      8.33657      6.27868     -2.06483         0.004452     -0.002648      0.013727
Li	     12.47947     10.51969    -10.44288         0.007537      0.001401      0.008894
Li	     12.45032      4.09590     -4.20393         0.009404     -0.003132      0.020771
Li	     14.61052      6.30090     -8.30698        -0.000361      0.008577      0.009748
Li	     16.74214      8.31547    -12.52957         0.005734     -0.006774      0.005128
Mn	      8.35093      4.11957     -4.14670        -0.005792     -0.038268      0.015531
Mn	     10.33246      6.24082     -8.33355        -0.031696      0.005601     -0.005586
Mn	     12.50787      8.30944    -12.49516        -0.008438     -0.004977      0.001038
Mn	     12.43916      1.91922     -6.28217        -0.019516     -0.018824      0.011328
Mn	     14.58437      4.11202    -10.42175         0.029876      0.015105      0.003973
Mn	      8.30777     10.50548    -10.36209        -0.006253     -0.019319      0.009974
Mn	      6.30201     -0.05121     -6.29591         0.016603     -0.004415      0.001459
Mn	     12.49785     10.47061     -6.24190        -0.007631      0.047298      0.018128
Mn	     14.58859     12.57894    -10.44784        -0.001076     -0.005655      0.020860
Mn	      6.19879     10.51924     -0.02583         0.005845      0.017656      0.042297
Mn	     12.59167     -0.09935    -12.57628         0.030829      0.023282     -0.007334
Mn	      6.28049      6.27316    -12.51823        -0.000776     -0.010806      0.011249
Mn	      2.08197      2.10605      0.00670        -0.000043      0.002808     -0.010132
Mn	      4.16720      4.16957     -4.15621        -0.008408     -0.008703      0.010802
Mn	      6.27463      6.34606     -8.38088         0.013729      0.003078     -0.012449
Mn	      6.29616     -0.05423     -2.10125         0.009268     -0.005676      0.000393
Mn	      8.42783      2.04715     -6.38759         0.016830      0.007630      0.009757
Mn	     10.43471      4.08484    -10.35266        -0.004004     -0.013611     -0.024979
Mn	      4.14053      6.34746      2.10568        -0.008281     -0.007417      0.004881
Mn	      6.22909      8.40558     -2.06554        -0.001003      0.008063      0.014447
Mn	      8.38401     10.55692     -6.23606         0.011593     -0.020264     -0.021368
Mn	      8.36275      4.18646     -0.00259         0.005318     -0.006559      0.002465
Mn	     10.44072      6.34757     -4.23279        -0.007171     -0.001165      0.006052
Mn	     12.47098      8.34678     -8.32312        -0.017517      0.005319     -0.001704
Mn	      6.25520      8.46034      2.01759         0.008864      0.042308     -0.006700
Mn	      4.26480      2.12571     -6.32444        -0.000337      0.019380     -0.000200
Mn	      6.40844      4.25388    -10.44897         0.010948      0.012509     -0.012082
Mn	      6.36691     -2.13682     -4.24122         0.013991     -0.015264      0.016255
Mn	      8.50494     -0.08429     -8.44310         0.013914      0.028781      0.006636
Mn	     10.50730      2.05032    -12.59992         0.008070      0.025484     -0.005592
Mn	      4.16499      4.23258     -0.01771        -0.007391     -0.001566     -0.007384
Mn	      6.28339      6.31332     -4.13342        -0.022997     -0.018630     -0.013218
Mn	      8.34340      8.43073     -8.33521         0.001480      0.000602      0.014307
Mn	      8.41048      2.07975     -2.09274         0.012544     -0.005673     -0.012684
Mn	     10.44743      4.14647     -6.31438        -0.012177     -0.017199     -0.013331
Mn	     12.58069      6.22428    -10.43170        -0.002686      0.010991     -0.015891
O	      4.32338     -0.23803     -2.16799         0.021143      0.025403      0.002603
O	      6.44222      1.90781     -6.33588         0.006818     -0.020239     -0.003304
O	      8.49321      3.90496    -10.54294         0.051900     -0.028827     -0.005989
O	      8.55003     -2.38202     -4.24867        -0.003436      0.025991     -0.001870
O	     10.65529     -0.38927     -8.50695         0.024344      0.016931     -0.023623
O	     12.68879      1.83844    -12.55515         0.019418     -0.015485      0.002534
O	      6.39355      3.99860      0.01817         0.004509      0.021571      0.000550
O	      8.30394      6.15048     -4.17977        -0.029051      0.031723      0.009651
O	     10.44810      8.20760     -8.43956         0.011877      0.003672      0.003607
O	     10.59909      1.86909     -2.08764         0.008975      0.026779     -0.005026
O	     12.40650      3.91739     -6.29213        -0.051622      0.049700      0.005651
O	     14.55393      6.07716    -10.45330        -0.066418      0.023876      0.020468
O	      6.18179      1.90221     -1.93595        -0.017970      0.018997     -0.012767
O	      8.42802      4.02580     -6.10675         0.040721      0.034144     -0.018829
O	     10.61343      6.08396    -10.34007        -0.004875      0.031077     -0.014535
O	     10.40570     -0.25954     -3.98212        -0.012547      0.018112     -0.012953
O	     12.73723      1.84453     -8.26636         0.024651      0.037209     -0.030876
O	     14.60380      3.94910    -12.55694        -0.031931      0.010001     -0.011798
O	      8.25982      6.15760      0.11320        -0.014584      0.030540     -0.035957
O	     10.35567      8.27771     -4.01325        -0.026864      0.012501      0.036186
O	     12.46614     10.30179     -8.23692        -0.036726      0.033712      0.005768
O	     12.48544      3.97804     -2.00705        -0.016907      0.020684     -0.018110
O	     14.60199      6.01474     -6.22805        -0.021420      0.008800     -0.036206
O	     16.71038      8.25239    -10.32316        -0.026813      0.093023      0.044669
O	      4.30010      2.21606     -4.34831         0.042524     -0.015469      0.004907
O	      6.13846      4.35824     -8.44344        -0.016457     -0.029772      0.033516
O	      8.45773      6.42773    -12.77275         0.011331     -0.023882      0.014981
O	      8.26381      0.03435     -6.42316        -0.017738     -0.017339      0.016788
O	     10.43772      2.13356    -10.63780        -0.004601     -0.031450      0.014763
O	     12.67329      4.27462    -14.80821         0.018538     -0.016106      0.016069
O	      6.32052      6.45908     -2.16087         0.014389     -0.023726     -0.032295
O	      8.10907      8.54078     -6.31342         0.021491     -0.074760      0.027494
O	     10.51548     10.68166    -10.56323         0.014385     -0.029327      0.019600
O	     10.47178      4.38905     -4.30447         0.054381     -0.014396     -0.018845
O	     12.61476      6.39563     -8.47222         0.020593     -0.042258     -0.013225
O	     14.73974      8.50393    -12.65266         0.009514     -0.031178      0.032096
O	      4.04501      2.26500      0.02749         0.001929     -0.024254      0.008180
O	      6.19632      4.37610     -4.17792        -0.023028      0.026552     -0.008319
O	      8.21288      6.52984     -8.23799        -0.025730     -0.013252      0.013441
O	      8.26124      0.12867     -2.04500        -0.020752     -0.029792     -0.006264
O	     10.33984      2.23881     -6.19478        -0.029229      0.037081      0.004077
O	     12.55885      4.25163    -10.39157        -0.039113      0.004020      0.004085
O	      6.11835      6.50385      2.08378        -0.001461     -0.028961     -0.005357
O	      8.47168      8.61700     -2.06409         0.039471     -0.047480     -0.029621
O	     10.52273     10.77457     -6.23397         0.064078     -0.031720     -0.007632
O	     10.33171      4.37774     -0.02725        -0.009422     -0.014134     -0.002913
O	     12.45027      6.43121     -4.21704        -0.035174     -0.006482     -0.003100
O	     14.71909      8.53058     -8.36410         0.030173     -0.034707      0.001699
O	      2.13430      1.88363     -2.28536         0.006116     -0.000828     -0.004988
O	      4.22980      4.10856     -6.40913         0.009206      0.042632     -0.048245
O	      6.19972      6.18222    -10.55919        -0.000099      0.017019     -0.006956
O	      6.36910     -0.15547     -4.32942         0.000201      0.030141     -0.055005
O	      8.35572      1.81645     -8.51984        -0.004587      0.025633     -0.046087
O	     10.52447      4.01842    -12.67839        -0.000176      0.028311      0.003367
O	      4.12347      6.19616     -0.11692         0.011623      0.038071     -0.015581
O	      6.25874      8.27154     -4.04415        -0.015093     -0.012412      0.024092
O	      8.37642     10.41161     -8.37510        -0.008113      0.005896     -0.045383
O	      8.38830      4.05811     -2.20471        -0.009468      0.029188     -0.011877
O	     10.44251      6.07751     -6.36789        -0.015014     -0.010902      0.006637
O	     12.58316      8.17304    -10.53142        -0.000615     -0.018651     -0.007389
O	      4.26076      4.31829     -1.97886        -0.012481     -0.007426      0.003560
O	      6.19488      6.47816     -6.08081         0.006289     -0.038488      0.054362
O	      8.31918      8.58418    -10.29108        -0.016330     -0.026337      0.003492
O	      8.34453      2.15023     -4.05292        -0.005133     -0.020650     -0.006203
O	     10.49740      4.32693     -8.24784         0.010371     -0.032094      0.066822
O	     12.51678      6.32336    -12.39612         0.004866     -0.038764      0.047328
O	      6.18952      8.52617     -0.03519         0.004087     -0.022700     -0.025620
O	      8.30562     10.74306     -4.08938         0.003133      0.032017      0.041095
O	     10.42553     12.80223     -8.21330        -0.002446     -0.035262     -0.004223
O	     10.40675      6.48389     -2.00468        -0.009543      0.012343     -0.003405
O	     12.65091      8.51727     -6.20560         0.013425      0.006197      0.006253
O	     14.59414     10.60501    -10.34126         0.014293     -0.021994      0.009140
