# total energy = -930.60900260 eV
 
CRYSTAL
PRIMVEC
4.144560 8.472461 4.180386 
8.474603 -4.324091 -4.203159 
6.310679 6.295245 -0.013032 
PRIMCOORD
140 1
Li	      4.23888      2.12457     -2.08279        -0.001782     -0.003496     -0.005275
Li	      6.40747      4.07411     -6.41016         0.007736     -0.006693      0.008854
Li	      8.40722      6.17942    -10.49471        -0.006673     -0.009798     -0.002728
Li	      8.45657      0.02009     -4.17740        -0.009064      0.002046      0.000495
Li	     10.54805      2.10654     -8.39794         0.012093     -0.007827     -0.016112
Li	     12.66697      4.15012    -12.53292         0.005787      0.000707      0.002726
Li	      6.31116      6.41993     -0.00860        -0.005091     -0.004473     -0.006415
Li	     10.53997     10.64091     -8.36788        -0.007623     -0.009378     -0.005829
Li	     10.53891      4.14430     -2.08089        -0.007875     -0.002525     -0.005725
Li	     12.63879      6.18966     -6.32376         0.001896     -0.028788     -0.012173
Li	     14.77106      8.38396    -10.43202         0.000569      0.002865     -0.003121
Li	      8.37653      8.40368     -0.00406         0.001523     -0.006546     -0.002168
Li	     12.61088      6.24465     -2.08932        -0.001289     -0.004194     -0.005569
Li	     14.71541      8.30076     -6.30165         0.002144     -0.007344     -0.006678
Li	     12.69160      2.06526    -14.63402        -0.002734      0.015485     -0.003120
Li	      6.32142      4.20722     -2.09380         0.000998      0.003715     -0.003467
Li	      8.40302      6.27177     -6.24566        -0.006954     -0.014359     -0.003282
Li	     10.45685      8.40050    -10.44124        -0.001233      0.000202     -0.002808
Li	     10.51676      2.04207     -4.20565        -0.001167      0.005382     -0.003604
Li	     12.63331      4.09969     -8.38191        -0.001509     -0.006436      0.002081
Li	     14.78523      6.25299    -12.51391        -0.009399      0.019417      0.012242
Li	      6.30005      2.00787     -4.19226         0.007130     -0.000189      0.004214
Li	     10.44340      6.12714    -12.52082         0.015210      0.018091      0.005409
Li	     10.51752     -0.10273     -6.30184         0.005261     -0.000337      0.001822
Li	     12.63427      2.06795    -10.42151         0.000672      0.009929      0.010065
Li	     14.75713      4.16366    -14.66549        -0.008990      0.013594      0.003502
Li	      8.38566      6.34547     -2.15210         0.009987     -0.002953      0.001047
Li	     10.39502      8.38836     -6.13375         0.003794     -0.016694     -0.009203
Li	     12.56066     10.56893    -10.36027        -0.002777      0.018788      0.020824
Li	     12.61187      4.06542     -4.22458         0.003999      0.003023     -0.004490
Li	     14.73386      6.16187     -8.34835        -0.005252      0.001399      0.005940
Li	     16.80940      8.30869    -12.53593        -0.010711      0.025264      0.005141
Mn	      8.37493      4.10475     -4.15947        -0.009592     -0.021752      0.012557
Mn	     10.40093      6.17701     -8.35340        -0.025434     -0.010192      0.017561
Mn	     12.58594      8.35561    -12.47638        -0.000842      0.013920     -0.005132
Mn	     12.62298      1.98863     -6.29323         0.002898     -0.006105      0.001653
Mn	      6.29313      8.44807     -6.20067        -0.011258     -0.029307      0.031523
Mn	     16.83220      6.19058    -14.62034        -0.005302      0.007735     -0.015179
Mn	     10.43638      8.39774     -2.11946        -0.005053     -0.018875      0.014036
Mn	     12.49521     10.43592     -6.23232         0.027079     -0.025676     -0.008665
Mn	     14.62552     12.58755    -10.39714         0.002284      0.009020      0.000529
Mn	      6.22678     10.50357      0.00757         0.023252     -0.029535     -0.002638
Mn	     12.67020     -0.06745    -12.51267         0.008545     -0.026367      0.020334
Mn	     10.44953     14.70783     -8.30821        -0.002147      0.012908      0.012548
Mn	      2.09064      2.12663     -0.00891         0.006358     -0.003447     -0.011076
Mn	      4.22115      4.22741     -4.19795        -0.001266      0.003930      0.007304
Mn	      6.31060      6.33271     -8.34075         0.012368      0.027061      0.010726
Mn	      6.32714     -0.05667     -2.08858        -0.006362      0.000537      0.007547
Mn	      8.39874      2.04950     -6.38838         0.002521      0.016003      0.016011
Mn	     10.44418      4.14413    -10.45735         0.004843     -0.001731     -0.002542
Mn	      4.18957      6.35168      2.12106        -0.004065     -0.009478     -0.014566
Mn	      6.31032      8.44552     -2.12287         0.007674     -0.017882      0.000106
Mn	      8.42685     10.50845     -6.15744        -0.022978      0.001669     -0.013587
Mn	      8.40431      4.19402      0.00257        -0.013389     -0.003310      0.011925
Mn	     10.52569      6.21165     -4.19209        -0.016919     -0.037442     -0.009200
Mn	     12.57542      8.34052     -8.34594         0.012685      0.039673      0.004434
Mn	      2.14809      0.00028     -2.09637         0.014631      0.003693     -0.000966
Mn	      4.28672      2.11560     -6.32354         0.009125     -0.003338      0.010074
Mn	      6.36368      4.14280    -10.44175         0.018601      0.015502     -0.007957
Mn	      6.38566     -2.14743     -4.20985        -0.003496      0.011499     -0.009493
Mn	     12.64616      8.32057     -4.22758        -0.010561      0.026157      0.019657
Mn	     10.57587      2.08879    -12.54443        -0.017245      0.021757     -0.002389
Mn	      4.21682      4.26692     -0.02242         0.004275      0.005095     -0.004121
Mn	      6.37614      6.37368     -4.20184         0.011045     -0.007980      0.000854
Mn	      8.42338      8.43798     -8.37467        -0.010544     -0.027609      0.007239
Mn	      8.44683      2.07114     -2.09475        -0.006978      0.014061     -0.003177
Mn	     10.51561      4.13824     -6.33663        -0.005003     -0.002668      0.005404
Mn	     12.65454      6.26661    -10.43583         0.004631     -0.014640     -0.020502
O	      4.35344     -0.21527     -2.10235         0.015485      0.008092      0.003098
O	      6.45289      1.86653     -6.22090         0.013975      0.003234     -0.012205
O	      8.31739      3.92305    -10.41239        -0.049334      0.033449     -0.011424
O	      8.58467     -2.39401     -4.21005         0.025032      0.007806      0.008768
O	     10.52472     -0.31987     -8.43187        -0.031749      0.016683     -0.005945
O	     12.80237      1.91017    -12.55285         0.032444     -0.050275      0.008522
O	      6.42025      3.99619     -0.01594         0.016269     -0.005666      0.009904
O	      8.54719      6.04507     -4.19794         0.024652     -0.003185     -0.001279
O	     10.38867      8.18314     -8.40533        -0.076258      0.029362      0.004565
O	     10.66247      1.86232     -2.10558         0.022562      0.010870      0.003682
O	     12.77674      3.94649     -6.29746         0.016548      0.012130     -0.005931
O	     14.90225      6.09356    -10.43566         0.018735      0.012389      0.004721
O	      6.22927      1.90964     -1.95030        -0.008242      0.004909     -0.009250
O	      8.32931      3.98486     -6.09085        -0.006616      0.002077     -0.007408
O	     10.38739      6.07365    -10.33077        -0.004122     -0.026182      0.006976
O	     10.45878     -0.22886     -4.08044        -0.010862      0.006236      0.014633
O	     12.57207      1.84529     -8.27267        -0.005148     -0.014077     -0.001709
O	     14.86110      4.01933    -12.44002         0.068062      0.044300     -0.024942
O	      8.30228      6.15703      0.14172        -0.000488      0.002396      0.006462
O	     10.69220      8.17537     -4.11528         0.063531      0.023395     -0.028824
O	     12.52315     10.23142     -8.23836        -0.016811     -0.028233     -0.010783
O	     12.53954      3.98232     -1.96121        -0.011276      0.001697      0.002990
O	     14.64923      6.07941     -6.16851         0.002355      0.010125     -0.002742
O	     16.93101      8.22382    -10.33396         0.040852      0.011334      0.028379
O	      4.27574      2.27607     -4.32199         0.020153     -0.007133     -0.001379
O	      6.15323      4.37688     -8.42843        -0.046787     -0.035425     -0.040657
O	      8.50299      6.50017    -12.65260        -0.005294      0.008284      0.007170
O	      8.53236      0.03679     -6.47776         0.013529     -0.023159     -0.093741
O	     10.57716      2.21393    -10.58036         0.016210      0.029994     -0.001220
O	     12.76036      4.27035    -14.74425        -0.001868     -0.008671      0.002588
O	      6.39514      6.47392     -2.23463         0.003041      0.003205      0.002906
O	      8.46482      8.56453     -6.44676         0.024325     -0.009645     -0.044171
O	     10.57915     10.68732    -10.56192         0.000442     -0.002969      0.024694
O	     10.57732      4.24535     -4.32924         0.029235     -0.014016     -0.000477
O	     12.66984      6.41594     -8.45951         0.009308      0.019529      0.007667
O	     14.79280      8.49628    -12.61108         0.017423     -0.000809      0.001391
O	      4.09538      2.30692      0.03534        -0.025005      0.001192      0.005652
O	      6.23043      4.37145     -4.15723        -0.022378     -0.002588      0.002772
O	      8.26930      6.52083     -8.34257        -0.011754      0.033380      0.001636
O	      8.31026      0.10067     -2.06680        -0.023790     -0.010814      0.010417
O	     10.39409      2.18508     -6.30314        -0.013299     -0.017121     -0.008683
O	     12.55245      4.30578    -10.46953        -0.023404      0.011743      0.000066
O	      6.14137      6.51612      2.01927        -0.022083     -0.011168      0.000705
O	      8.27747      8.62516     -2.01912        -0.019585     -0.005658     -0.003609
O	     10.36368     10.69172     -6.32455        -0.038224      0.042032     -0.011778
O	     10.37769      4.35115      0.01762        -0.020444      0.004429     -0.006411
O	     12.51946      6.35498     -4.18295        -0.014081      0.072235     -0.013655
O	     14.82751      8.57797     -8.34812         0.054887     -0.028735     -0.003199
O	      2.14281      1.98100     -2.21235        -0.002093      0.015077     -0.028483
O	      4.24317      4.12326     -6.35571        -0.009461      0.016050     -0.060595
O	      6.36594      6.11091    -10.53340        -0.010344     -0.057595     -0.015022
O	      6.37480     -0.18283     -4.31215         0.002471      0.009562      0.002687
O	      8.58580      1.73381     -8.51156        -0.009484     -0.086587     -0.009347
O	     10.66538      4.04147    -12.63060         0.005520     -0.003833      0.008516
O	      4.19750      6.22573     -0.13125        -0.007259      0.010093     -0.004689
O	      6.18597      8.33687     -4.27858         0.005192      0.007893     -0.018431
O	      8.42141     10.39060     -8.46808        -0.015816     -0.013412      0.004087
O	      8.44497      4.03042     -2.19494        -0.003144     -0.001492     -0.003882
O	     10.50950      6.10254     -6.40705         0.004027      0.008810     -0.029690
O	     12.63650      8.24571    -10.42672        -0.002791     -0.000332      0.030406
O	      4.14855      4.33632     -2.00223        -0.005003      0.000782      0.003168
O	      6.28973      6.48562     -6.14958        -0.004238      0.001154      0.012850
O	      8.34861      8.54445    -10.33183         0.002571      0.005010      0.056902
O	      8.39456      2.13668     -4.04664         0.001519     -0.019988      0.019766
O	     10.61702      4.23368     -8.29281        -0.013840     -0.002965     -0.013809
O	     12.60787      6.40551    -12.38092         0.004697     -0.002564      0.023984
O	      6.24900      8.54766      0.11822         0.004256      0.003989      0.009568
O	      8.22647     10.82959     -4.05527         0.017139      0.067323      0.000700
O	     10.33665     12.75207     -8.21166         0.001764     -0.029247      0.048895
O	     10.46070      6.41923     -1.99324         0.005428     -0.008230      0.008696
O	     12.56159      8.43240     -6.25263         0.005067     -0.020452      0.047906
O	     14.66960     10.61322    -10.30909         0.000613     -0.000793      0.023444
