# total energy = -930.52933074 eV
 
CRYSTAL
PRIMVEC
4.142317 8.467031 4.181978 
8.486174 -4.327915 -4.207065 
6.313978 6.292144 -0.013001 
PRIMCOORD
140 1
Li	      4.25043      2.10756     -2.12057         0.005271     -0.010290     -0.014879
Li	      6.47808      4.21370     -6.40963         0.008698      0.020280      0.011865
Li	      8.42840      6.24370    -10.43652        -0.012037      0.005794     -0.000696
Li	      8.46305     -0.03417     -4.18751        -0.004916     -0.011008      0.008400
Li	     10.56397      2.08575     -8.40231        -0.001615     -0.009179     -0.013626
Li	     12.66883      4.15544    -12.53484        -0.002828     -0.001598      0.005358
Li	      6.31384      6.38845     -0.01675        -0.003360     -0.006665     -0.008706
Li	     10.48043     10.56470     -8.33735        -0.003674     -0.008262     -0.001193
Li	     10.53242      4.17714     -2.09521         0.005052     -0.009861     -0.003692
Li	     12.64297      6.19318     -6.33717         0.010339     -0.028046     -0.016722
Li	     14.78920      8.36814    -10.42529         0.000509     -0.010672      0.014688
Li	      8.38590      8.40347     -0.00852         0.001710     -0.012922     -0.003175
Li	      8.43048      4.16124    -12.54331        -0.001869      0.014135      0.002265
Li	     12.59666      6.24693     -2.11844        -0.002558     -0.013198     -0.003998
Li	     14.72198      8.35412     -6.28762        -0.000507     -0.001192     -0.003075
Li	     12.70661      1.99216    -14.64035         0.001614      0.013968      0.001563
Li	      6.36547      4.21626     -2.11371         0.003194      0.008115     -0.005127
Li	     10.45101      8.35492    -10.43871        -0.003804     -0.012475      0.005321
Li	     10.50373      2.00881     -4.23548         0.001875     -0.008287     -0.001530
Li	     12.65095      4.12211     -8.37959         0.000937     -0.001270     -0.000255
Li	     14.79826      6.23334    -12.52337         0.002099      0.005824      0.002109
Li	      6.33501      2.00295     -4.21403         0.000928      0.009253      0.001094
Li	     10.50285      6.17859    -12.53505         0.003836      0.006577      0.008150
Li	     10.51210     -0.12303     -6.33323         0.002646      0.005029     -0.012997
Li	     12.65901      2.04602    -10.42025        -0.005287      0.028975      0.014035
Li	     14.77147      4.06194    -14.66422        -0.008359      0.008869      0.003852
Li	      8.38787      6.31913     -2.11596         0.013585     -0.003254      0.003567
Li	     10.33749      8.35426     -6.14111        -0.012030     -0.019905     -0.015959
Li	     12.56556     10.46151    -10.43200        -0.004819      0.009137      0.017654
Li	     12.63500      4.08322     -4.22502        -0.000339      0.003205     -0.006543
Li	     14.73839      6.15438     -8.35670         0.001539      0.011497      0.012637
Li	     16.83907      8.27471    -12.57262         0.004377      0.011170     -0.008040
Mn	      8.39536      4.11756     -4.17719         0.006477      0.024208     -0.025851
Mn	     10.37155      6.18440     -8.31595        -0.004863     -0.019828      0.024215
Mn	     12.60363      8.34047    -12.50057        -0.014118      0.000598      0.023611
Mn	     12.64381      1.96325     -6.32092         0.013967      0.006143     -0.010064
Mn	      6.31714      8.43775     -6.20018        -0.010967      0.003976      0.012600
Mn	     16.84093      6.17433    -14.65353         0.005442      0.015388      0.007694
Mn	     10.43181      8.37735     -2.12821        -0.019576     -0.032455     -0.001336
Mn	     12.51257     10.44382     -6.23247        -0.003064      0.013336     -0.025311
Mn	     14.66657     12.56728    -10.44261        -0.000815     -0.002095      0.003453
Mn	      6.20717     10.49190     -0.00082         0.004149     -0.026812      0.007592
Mn	     12.66732     -0.06237    -12.51412         0.014418      0.007538     -0.000721
Mn	     18.90547     10.39095    -12.54166        -0.003710     -0.007796      0.008601
Mn	      2.08765      2.10189     -0.01343         0.004933      0.005546     -0.016860
Mn	      4.23994      4.20500     -4.19952         0.001252      0.018605      0.003771
Mn	      6.33281      6.34662     -8.31017        -0.011809      0.031784     -0.002059
Mn	      6.34274     -0.06084     -2.10096         0.008302      0.002713      0.007154
Mn	      8.40711      2.00939     -6.38836        -0.009516      0.007769      0.009562
Mn	     10.50594      4.13797    -10.42629        -0.023824      0.009592     -0.008622
Mn	      4.15978      6.33641      2.08453        -0.001825     -0.000265     -0.008076
Mn	      6.31140      8.43004     -2.12579         0.012569     -0.010783      0.007512
Mn	      8.40861     10.55841     -6.16350         0.000773     -0.009141     -0.010356
Mn	      8.41515      4.17362     -0.00279        -0.005589     -0.003674      0.015761
Mn	     10.48343      6.22098     -4.24213         0.018478     -0.037876      0.005967
Mn	     12.57551      8.36347     -8.35201         0.001168     -0.018436     -0.003032
Mn	      2.15048     -0.00011     -2.10895         0.000378      0.002511     -0.001942
Mn	      4.30289      2.12454     -6.31886         0.007561     -0.018324      0.025117
Mn	      6.38324      4.19001    -10.42370         0.024063      0.027845      0.007033
Mn	      6.39800     -2.15169     -4.21728         0.002053      0.006230     -0.003745
Mn	     12.63441      8.30205     -4.24473        -0.012210     -0.004915      0.001807
Mn	     10.60944      2.07585    -12.55025        -0.008394      0.030909     -0.007871
Mn	      4.21227      4.22835     -0.05233         0.012441     -0.002945     -0.018582
Mn	      6.44506      6.38420     -4.23683         0.002475      0.017075     -0.017478
Mn	      8.42082      8.45081     -8.37534        -0.008623     -0.026148      0.019625
Mn	      8.46076      2.06658     -2.10630        -0.004621     -0.019142     -0.004907
Mn	     10.49863      4.13052     -6.35223         0.010882     -0.005144     -0.013540
Mn	     12.65883      6.27820    -10.43825        -0.013060     -0.012343      0.009017
O	      4.36353     -0.21793     -2.12213         0.022384      0.020132     -0.001362
O	      6.45792      1.83477     -6.22308         0.040243      0.020977     -0.004523
O	      8.53389      3.94097    -10.53999         0.047488      0.009244     -0.003014
O	      8.59716     -2.38690     -4.23237         0.045263      0.006846      0.012212
O	     10.48668     -0.33795     -8.44345        -0.072118      0.036027      0.003759
O	     12.80695      1.91317    -12.55856         0.051091     -0.058716      0.003229
O	      6.41282      3.98992     -0.03366         0.032303      0.002247      0.000755
O	      8.54276      6.01596     -4.11426         0.031160     -0.060402     -0.014603
O	     10.38822      8.20832     -8.38758        -0.057364      0.045923      0.002274
O	     10.66678      1.84953     -2.13861         0.037947      0.019458      0.004676
O	     12.77862      3.91393     -6.28270         0.028597      0.004790     -0.004615
O	     14.89136      6.08345    -10.44522         0.029134      0.025364      0.019252
O	      6.24117      1.90227     -1.94737        -0.014814      0.002591     -0.022587
O	      8.35452      3.91215     -6.08033        -0.009212      0.032516      0.071730
O	     10.41370      6.10311    -10.30237        -0.018057      0.014103     -0.018926
O	     10.49084     -0.24980     -4.11702        -0.007440     -0.001840     -0.022301
O	     12.61235      1.78930     -8.29290         0.007878     -0.005882     -0.016414
O	     14.88286      4.02638    -12.45092         0.037854      0.016952     -0.019025
O	      8.30548      6.13456      0.12158        -0.006237     -0.005733     -0.008496
O	     10.67631      8.17056     -4.12711         0.064095      0.028736     -0.021717
O	     12.52492     10.28266     -8.25356        -0.033373      0.013682     -0.011695
O	     12.53715      3.97513     -1.99723        -0.011988      0.004372      0.002468
O	     14.65626      6.05560     -6.16141         0.008574     -0.002308     -0.024150
O	     16.77285      8.23702    -10.26596        -0.009526      0.024008      0.073619
O	      4.29082      2.28623     -4.29751         0.034573     -0.018764      0.008373
O	      6.13931      4.39619     -8.42472        -0.065671     -0.021534      0.019847
O	      8.51152      6.43297    -12.67321         0.000569      0.002856      0.010384
O	      8.52814      0.00318     -6.49275         0.017467     -0.028247     -0.075005
O	     10.64649      2.18495    -10.59699        -0.008733     -0.011546      0.027112
O	     12.76636      4.26463    -14.76126         0.007897     -0.007830     -0.003028
O	      6.40281      6.46417     -2.25013         0.018394     -0.006355      0.023600
O	      8.46157      8.65561     -6.47282         0.009306     -0.024206     -0.058320
O	     10.57453     10.66591    -10.60589         0.014964     -0.004437      0.028684
O	     10.41927      4.21346     -4.30825        -0.036469     -0.015617      0.019617
O	     12.69003      6.45068     -8.46603        -0.013109      0.009873      0.018329
O	     14.81112      8.48970    -12.64255         0.014226     -0.000481      0.020440
O	      4.08986      2.28659      0.01729        -0.037954     -0.000321      0.001808
O	      6.42855      4.36065     -4.16592         0.057444     -0.048527     -0.002423
O	      8.27369      6.55278     -8.43807        -0.030937      0.048836      0.010746
O	      8.32208      0.09958     -2.08554        -0.043415     -0.018470      0.003902
O	     10.41108      2.15650     -6.31349        -0.028346     -0.029836     -0.022466
O	     12.52405      4.32727    -10.47699        -0.028350     -0.004005      0.006471
O	      6.13944      6.49250      2.10607        -0.027944     -0.015463      0.004366
O	      8.28224      8.62691     -2.01120        -0.042106     -0.004738     -0.002651
O	     10.35658     10.73288     -6.32831        -0.029558     -0.024895      0.002799
O	     10.39151      4.33390      0.00896        -0.044292     -0.003655     -0.003732
O	     12.49533      6.32638     -4.20018        -0.053356      0.062963     -0.003389
O	     14.81499      8.57810     -8.31471         0.071586     -0.032720     -0.005536
O	      2.13727      1.96981     -2.22404         0.006508      0.023519      0.000250
O	      4.25701      4.11974     -6.29188         0.001749      0.029717     -0.034560
O	      6.34995      6.16614    -10.55966        -0.001072      0.030545      0.000969
O	      6.38494     -0.19250     -4.31714         0.006853      0.020724      0.017338
O	      8.59998      1.72779     -8.51446        -0.016964     -0.070701     -0.017228
O	     10.57126      4.04360    -12.67368         0.000970      0.021243      0.008174
O	      4.20963      6.17567     -0.15680        -0.005997     -0.002639     -0.017670
O	      6.17817      8.33744     -4.27513         0.004954      0.023930     -0.005048
O	      8.41314     10.42273     -8.49983        -0.000376     -0.028484      0.006013
O	      8.45923      4.02087     -2.20170         0.011219      0.031656     -0.050040
O	     10.63092      6.07179     -6.40036        -0.004105      0.015106     -0.000537
O	     12.64331      8.26708    -10.45268        -0.007334      0.011702      0.028992
O	      4.17284      4.30185     -2.09906         0.005890     -0.008424     -0.031714
O	      6.18548      6.49625     -6.15161         0.000210     -0.016707     -0.008284
O	      8.35662      8.54824    -10.35048        -0.006821     -0.032223      0.045768
O	      8.40298      2.14498     -4.05295        -0.000892      0.040855     -0.003524
O	     10.63747      4.23078     -8.27743        -0.004796     -0.018986      0.009476
O	     12.60696      6.39343    -12.39513         0.005474      0.007760      0.012931
O	      6.24548      8.52393      0.12230         0.001780     -0.024632     -0.012252
O	      8.21581     10.84028     -4.03736         0.014276      0.068372      0.016159
O	     10.43155     12.75943     -8.23415        -0.007815     -0.011430     -0.025001
O	     10.46667      6.40089     -1.99149         0.001419     -0.023051     -0.010213
O	     12.55772      8.44827     -6.25930         0.004970     -0.024980      0.031971
O	     14.67910     10.59768    -10.32715        -0.005568     -0.026223     -0.004528
