# total energy = -930.49881309 eV
 
CRYSTAL
PRIMVEC
4.122116 8.481939 4.204825 
8.446941 -4.338895 -4.225571 
6.282040 6.291489 -0.013047 
PRIMCOORD
140 1
Li	      4.20088      2.04545     -2.05288         0.001042      0.009217      0.012025
Li	      6.31396      4.14293     -6.33670        -0.008580      0.015036      0.003188
Li	      8.43820      6.21105    -10.61701        -0.008050     -0.008599     -0.007448
Li	      8.41188     -0.00237     -4.19060         0.000857      0.019712      0.007559
Li	     10.53259      2.06562     -8.41039         0.017743      0.033813      0.007494
Li	     12.60917      4.21101    -12.59725         0.015515      0.032958      0.005239
Li	      6.29006      6.37761     -0.01305         0.003252      0.016058      0.002179
Li	     10.49724     10.58514     -8.41823         0.003773     -0.001116     -0.018126
Li	     10.50553      4.15386     -2.11566        -0.010122      0.000579     -0.016543
Li	     12.59511      6.23520     -6.31662        -0.000260     -0.012642     -0.013102
Li	     14.70253      8.32349    -10.51673         0.003010     -0.011075     -0.011513
Li	      8.33382      8.43130      0.00119        -0.001014     -0.000865     -0.001064
Li	      8.43575     -2.21701     -6.31683        -0.000173     -0.002280     -0.000474
Li	     14.64852      8.33275     -6.29888         0.007729     -0.021323     -0.009324
Li	     12.62589      2.00123    -14.70931        -0.004532      0.021172      0.005316
Li	      6.27386      4.19296     -2.10199         0.000089     -0.001401     -0.000515
Li	      8.38760      6.38126     -6.25317         0.014686      0.043653     -0.001028
Li	     10.44044      8.29241    -10.53045        -0.012780     -0.043341     -0.001155
Li	     10.49733      2.02274     -4.21458        -0.000849     -0.001419     -0.001039
Li	     12.56370      4.12529     -8.42591        -0.009567      0.005480      0.000347
Li	     14.71198      6.21070    -12.58333         0.009346     -0.007884     -0.001006
Li	      6.25603      2.00266     -4.18970        -0.001630     -0.013595     -0.001826
Li	      8.32829      4.08797     -8.36617         0.001135      0.000447      0.021922
Li	     10.48805     -0.10912     -6.31339         0.007459     -0.002927      0.015882
Li	     12.57346      2.00726    -10.49361        -0.007139      0.010516      0.013104
Li	     14.68012      4.09855    -14.69299         0.000213      0.012557      0.013290
Li	      8.34505      6.33900     -2.15245         0.002275     -0.008098     -0.010999
Li	     10.39078      8.46067     -6.16788         0.010533      0.009359      0.009266
Li	     12.51536     10.52658    -10.44771         0.007287     -0.011412     -0.003780
Li	     12.58124      4.04748     -4.23862        -0.001959     -0.023181     -0.008606
Li	     14.66558      6.12297     -8.41219        -0.014750     -0.034829     -0.007884
Li	     16.74260      8.26674    -12.59590        -0.017600     -0.032749     -0.010864
Mn	      8.34270      4.12114     -4.18661         0.000072     -0.018812      0.005781
Mn	     10.41940      6.21945     -8.36113        -0.015645     -0.006743      0.016156
Mn	     12.50314      8.29808    -12.56388        -0.000529      0.010124      0.011878
Mn	     12.57359      1.97231     -6.31343         0.005379     -0.025606      0.005197
Mn	      6.24545      8.42352     -6.24208         0.012489     -0.010356     -0.023760
Mn	     16.76553      6.17787    -14.69207         0.009330     -0.024026      0.008961
Mn	     10.38642      8.40938     -2.11258        -0.013150     -0.009995      0.024440
Mn	     12.49141     10.47634     -6.24198         0.016713     -0.005287     -0.013922
Mn	     14.56733     12.56740    -10.43633         0.006897     -0.021946     -0.006459
Mn	      6.19078     10.51138      0.03016         0.021770     -0.017905      0.013840
Mn	     16.72071      8.32320     -8.38634         0.005733     -0.040544      0.009819
Mn	     12.52275      4.14763     -0.01044         0.038897      0.011553      0.012696
Mn	      2.06044      2.13638     -0.00153        -0.001071      0.036465      0.008990
Mn	      4.18147      4.21793     -4.19937         0.000164      0.012762     -0.002207
Mn	      6.26716      6.34587     -8.39272         0.017297      0.030944      0.015972
Mn	      6.27361     -0.07066     -2.07894         0.014293      0.009743      0.005054
Mn	      8.37619      2.01886     -6.33289         0.008657      0.012058      0.019076
Mn	     10.44375      4.16142    -10.58143         0.006179      0.016631      0.018350
Mn	      4.17037      6.36235      2.12919        -0.006688     -0.010845     -0.018361
Mn	      6.27230      8.45143     -2.12500        -0.008592     -0.009521     -0.003029
Mn	      8.38568     10.50996     -6.20167        -0.009849     -0.014471     -0.019387
Mn	      8.36538      4.16280     -0.00470        -0.003591     -0.012991     -0.002121
Mn	     10.48577      6.24522     -4.20279        -0.001825     -0.031918     -0.009259
Mn	     12.56197      8.32724     -8.39150        -0.018761     -0.036316     -0.015205
Mn	      2.15988     -0.02785     -2.09101         0.013663      0.010854     -0.023593
Mn	      4.26050      2.10364     -6.34615        -0.005581      0.025485      0.004870
Mn	      6.33774      4.19696    -10.54083        -0.020347      0.006731      0.012834
Mn	      6.35512     -2.12984     -4.23354        -0.021545      0.016758     -0.015551
Mn	      8.46978     -0.10480     -8.41914        -0.033749     -0.014480     -0.010966
Mn	     10.55463      2.00759    -12.62208        -0.006656      0.036487     -0.011930
Mn	      4.20340      4.26062     -0.01743         0.001781      0.016358     -0.009104
Mn	      6.32439      6.37460     -4.22038         0.002955     -0.013306     -0.014929
Mn	      8.40900      8.45358     -8.42325         0.017728      0.003998     -0.013828
Mn	      8.41998      2.07010     -2.11641        -0.005887      0.026662     -0.004273
Mn	     10.50962      4.15652     -6.31738        -0.009330      0.022224     -0.006149
Mn	     12.58256      6.24908    -10.54208        -0.014369      0.009348      0.023246
O	      4.31250     -0.24287     -2.19560         0.007463     -0.006219      0.014703
O	      6.42349      1.86343     -6.22075         0.021868     -0.026989     -0.016204
O	      8.48641      3.94906    -10.36396        -0.000172     -0.009391     -0.016882
O	      8.51160     -2.36606     -4.24670         0.036704     -0.076376     -0.002079
O	     10.50693     -0.31421     -8.44097        -0.027879     -0.007979      0.000673
O	     12.61817      1.81858    -12.64390        -0.026280     -0.032689      0.002897
O	      6.36273      4.01052     -0.02927         0.038341     -0.021011      0.013015
O	      8.50268      6.05063     -4.22333         0.023325      0.002562     -0.007194
O	     10.54108      8.21771     -8.42310         0.068600     -0.003305      0.008523
O	     10.62310      1.85837     -2.13937         0.018005      0.001207      0.001630
O	     12.71270      3.93990     -6.32521         0.019797     -0.005159     -0.002679
O	     14.82734      6.03669    -10.48582         0.021260      0.001385     -0.003092
O	      6.18976      1.90063     -1.95630        -0.012551     -0.005230      0.009388
O	      8.28951      3.97941     -6.18005        -0.014259     -0.013187     -0.002379
O	     10.38017      6.10881    -10.29205        -0.005084     -0.017186     -0.005941
O	     10.44252     -0.22551     -4.10083        -0.046754     -0.019269      0.006110
O	     12.51458      1.82007     -8.30117        -0.014542     -0.005144      0.006393
O	     14.68152      3.95960    -12.49217        -0.055598      0.000187      0.013401
O	      8.30289      6.10476      0.12809        -0.006642      0.002634      0.010565
O	     10.64142      8.21139     -4.10842         0.064929      0.005701     -0.010105
O	     12.63447     10.27501     -8.27918         0.013523      0.008766      0.004076
O	     12.48774      4.00272     -1.97228        -0.015656      0.026045      0.041223
O	     14.58286      6.07050     -6.17105        -0.003460      0.002320      0.014788
O	     16.69081      8.15943    -10.34496        -0.003771      0.003802      0.024321
O	      4.24323      2.27596     -4.33070         0.007944     -0.004992     -0.015561
O	      6.20028      4.39968     -8.50526        -0.013036     -0.009881     -0.008508
O	      8.18668      6.46194    -12.67422        -0.071752     -0.010378      0.005620
O	      8.50505      0.03920     -6.45712         0.015247     -0.019695     -0.035591
O	     10.58442      2.17109    -10.66425         0.006029      0.000102     -0.029503
O	     12.69237      4.26287    -14.83701        -0.000075     -0.004146     -0.013812
O	      6.35629      6.47969     -2.24822         0.008015      0.008130     -0.005032
O	      8.44883      8.56296     -6.49232         0.001075      0.016686      0.008984
O	     10.53942     10.69310    -10.60272         0.012677      0.010312      0.003390
O	     10.55049      4.26831     -4.32941         0.051705      0.022344     -0.003607
O	     12.59358      6.37401     -8.51740         0.058810     -0.003780     -0.016457
O	     14.76059      8.51301    -12.70791         0.016908      0.002827     -0.009801
O	      4.04369      2.33145      0.01880        -0.029070     -0.008453      0.006301
O	      6.18409      4.37101     -4.17522        -0.038326      0.025687     -0.006029
O	      8.28723      6.45564     -8.36169        -0.067357      0.006554     -0.002295
O	      8.28088      0.10265     -2.10504        -0.024338      0.009287      0.007655
O	     10.37080      2.18385     -6.29039        -0.020815     -0.001520      0.002668
O	     12.44722      4.29682    -10.52428        -0.017105     -0.000469      0.009434
O	      6.12275      6.51814      2.01721        -0.021461      0.024675      0.018686
O	      8.23377      8.62235     -2.00698        -0.011427      0.009900     -0.018934
O	     10.34412     10.72348     -6.42051        -0.005259      0.004157      0.018952
O	     10.48531      4.35690      0.01146         0.032341      0.006362      0.001005
O	     12.48125      6.40871     -4.18286        -0.040154      0.071317      0.000136
O	     14.65172      8.51264     -8.36528         0.025225      0.038918     -0.005249
O	      2.13515      1.95184     -2.20552        -0.013669     -0.016430     -0.031577
O	      4.22100      4.09933     -6.39034        -0.008123      0.009115     -0.065723
O	      6.30480      6.18745    -10.60239        -0.014811      0.005572     -0.070976
O	      6.33639     -0.17723     -4.33085         0.002404      0.017388     -0.028033
O	      8.55813      1.82270     -8.50797        -0.014397     -0.066944     -0.019183
O	     10.64436      3.89656    -12.72404        -0.027607     -0.035326     -0.024500
O	      4.18799      6.22432     -0.12998         0.000333      0.012916     -0.021015
O	      6.13732      8.32336     -4.30467         0.002989      0.001958     -0.019296
O	      8.37829     10.42092     -8.52121        -0.007354      0.027852     -0.031356
O	      8.41853      4.04131     -2.20118         0.001694     -0.015680     -0.021098
O	     10.50513      6.13152     -6.40250         0.006689     -0.012449     -0.017388
O	     12.58881      8.21731    -10.60004         0.012234     -0.019995     -0.022359
O	      4.12797      4.34001     -2.00351         0.002023      0.017485      0.025148
O	      6.23837      6.45512     -6.18481        -0.012137      0.023085      0.021822
O	      8.32317      8.54183    -10.38170        -0.004547      0.014557      0.018704
O	      8.35890      2.15709     -4.07418        -0.004948     -0.009181      0.022247
O	     10.44991      4.25188     -8.26204         0.007175     -0.023611      0.026655
O	     12.69087      6.34893    -12.47934        -0.003078     -0.001311      0.019860
O	      6.20985      8.55839      0.12767        -0.001461     -0.012414      0.022864
O	      8.18420     10.77272     -4.05861         0.025062      0.033259      0.026626
O	     10.26990     12.85049     -8.27416         0.013914      0.065488      0.016457
O	     10.41078      6.43012     -1.99812         0.015535      0.013699      0.031182
O	     12.52234      8.48621     -6.18060         0.020131     -0.003578      0.068558
O	     14.60717     10.57133    -10.39246         0.015209     -0.006808      0.071133
