# total energy = -930.50010762 eV
 
CRYSTAL
PRIMVEC
4.146518 8.457432 4.183141 
8.485143 -4.319381 -4.206209 
6.317085 6.279709 -0.013015 
PRIMCOORD
140 1
Li	      4.20568      2.12474     -2.06839        -0.002992     -0.003367     -0.008763
Li	      6.34703      4.24789     -6.28815        -0.003799     -0.015145     -0.009063
Li	      8.50791     -0.07442     -4.14773        -0.011030      0.000321      0.003665
Li	     10.57114      2.02391     -8.35310         0.002014     -0.001405     -0.004575
Li	     12.68339      3.96834    -12.66225        -0.006301     -0.036648     -0.020791
Li	      6.30517      6.21683      0.03680        -0.015235     -0.007265     -0.001830
Li	      8.42819      8.40959     -4.19676        -0.001076     -0.013046     -0.017180
Li	     10.59195     10.39803     -8.49188         0.005009     -0.000898     -0.000414
Li	     10.52612      4.21433     -2.11198         0.007319      0.004114      0.008425
Li	     12.64906      6.30096     -6.27908        -0.002103     -0.010173      0.003831
Li	     14.79479      8.48381    -10.48677        -0.013207     -0.009929     -0.021818
Li	      8.32523      8.38649      0.01121        -0.000647     -0.012770     -0.002695
Li	      6.39341      2.06963     -8.37347        -0.001372      0.011888      0.001644
Li	      8.44440      4.14085    -12.53532        -0.000075     -0.001907     -0.000360
Li	      8.50852     -2.20070     -6.25458        -0.003257      0.008126      0.005757
Li	     14.69466      8.33786     -6.31415         0.004103     -0.006066     -0.004342
Li	      6.30540      4.17964     -2.08766         0.000502     -0.003053      0.006834
Li	      8.41346      6.27898     -6.27455        -0.000907      0.000511     -0.008730
Li	     10.55403      2.03187     -4.19723        -0.001796      0.007123     -0.001727
Li	     12.64956      4.10537     -8.37139         0.001349     -0.005706      0.000999
Li	     14.76074      6.20951    -12.54684        -0.000740     -0.001044      0.000142
Li	      6.29036      2.04698     -4.16604         0.003554      0.012052      0.020509
Li	      8.41379      4.24104     -8.39879         0.010900      0.006015      0.003577
Li	     10.44234      6.33901    -12.39536         0.002171      0.001253      0.000481
Li	     10.55472     -0.16350     -6.28894         0.000965      0.009818     -0.006005
Li	     12.67792      1.92379    -10.45644        -0.005802     -0.003250     -0.009653
Li	     14.72607      3.93382    -14.60639         0.013161      0.012232      0.020684
Li	      8.37160      6.20903     -2.07442         0.003725      0.014253      0.009292
Li	     10.51306      8.33308     -6.29397         0.000381      0.000062      0.008602
Li	     12.63227      4.11424     -4.21537        -0.000240     -0.003110      0.003818
Li	     14.69653      6.21093     -8.42094         0.003273      0.000916     -0.003433
Li	     16.83774      8.44919    -12.43164         0.004286      0.035014      0.022534
Mn	      8.38811      4.14163     -4.17921        -0.003068     -0.019720      0.006032
Mn	     10.47876      6.25299     -8.39397        -0.016191     -0.016693      0.002946
Mn	     12.57891      8.31998    -12.49251         0.003304      0.023320     -0.032061
Mn	     12.62751      1.95472     -6.26379         0.012816     -0.004200      0.015475
Mn	      6.23707      8.33007     -6.26038        -0.000922     -0.013981      0.003227
Mn	     16.83150      6.24499    -14.58781         0.017799     -0.009951      0.005631
Mn	      6.32719     -0.08255     -6.23071         0.006771      0.006616      0.018444
Mn	     12.57928     10.44405     -6.25931         0.012735      0.020351     -0.014043
Mn	     14.62168     12.50023    -10.42163        -0.006821      0.002182      0.012134
Mn	     14.70735      6.19898     -4.19200        -0.007994      0.001452     -0.000625
Mn	     16.81763      8.29266     -8.39831         0.008837      0.000416     -0.013450
Mn	     14.78459      1.97173    -16.64500        -0.011103      0.000458      0.010207
Mn	      2.12178      2.08974      0.12526        -0.004987     -0.000708     -0.007805
Mn	      4.19599      4.18399     -4.17520         0.003927     -0.013191     -0.000500
Mn	      6.30783      6.27622     -8.40021         0.012464      0.001929      0.006965
Mn	      6.30914     -0.03445     -2.09266        -0.018104     -0.033907     -0.000320
Mn	      8.44981      2.04209     -6.27348        -0.006288      0.008325      0.020115
Mn	     10.55640      4.08488    -10.47509         0.006293     -0.023575     -0.016865
Mn	      4.16187      6.37185      2.11283        -0.004573      0.023503      0.015028
Mn	      6.26852      8.41450     -2.08894         0.008907     -0.012063     -0.020052
Mn	      8.40944     10.49143     -6.26942         0.014575      0.034086      0.000343
Mn	      8.41056      4.18064      0.03761        -0.010493     -0.003270     -0.002940
Mn	     10.52253      6.27261     -4.18758        -0.001805      0.008860      0.001322
Mn	     12.59702      8.36704     -8.48766         0.004279      0.001949      0.009632
Mn	      2.13919      0.01272     -2.10291        -0.012120     -0.024055      0.013808
Mn	      8.39118     10.53917     -2.13172        -0.007446     -0.006390     -0.018454
Mn	      6.41356      4.23652    -10.46637         0.009375     -0.002342     -0.006367
Mn	      6.38556     -2.15515     -4.16999        -0.006315     -0.002167      0.011848
Mn	      8.49657     -0.06202     -8.37646         0.006460     -0.002613      0.000867
Mn	     14.73607     10.44571     -8.44880         0.011830     -0.000944     -0.009677
Mn	      4.24070      4.20399      0.03188         0.009039      0.015020     -0.001921
Mn	      6.33023      6.31542     -4.18327         0.005217      0.012110     -0.005883
Mn	      8.45715      8.41621     -8.39534        -0.004324     -0.021763      0.030701
Mn	      8.48183      2.12675     -2.10214        -0.002559      0.015663     -0.001557
Mn	     10.57618      4.18231     -6.30496        -0.014693      0.006491     -0.013131
Mn	     12.68902      6.17198    -10.50623        -0.013846      0.005635     -0.004812
O	      4.11609     -0.21486     -2.13587        -0.078281      0.064200      0.004668
O	      6.45105      1.85855     -6.30108         0.002265      0.007556      0.006182
O	      8.58051      3.90167    -10.47068         0.021241     -0.041299     -0.006913
O	      8.60729     -2.34533     -4.16745         0.018251      0.028819      0.026320
O	     10.70321     -0.29322     -8.39481         0.001114      0.020771      0.006756
O	     12.79910      1.76922    -12.44635         0.012595      0.014655      0.012312
O	      6.41491      3.99463     -0.08459        -0.004365      0.007113     -0.011288
O	      8.54628      6.11523     -4.20712         0.006140      0.023369      0.008040
O	     10.64491      8.18839     -8.31631         0.015522      0.023726      0.010998
O	     10.66426      1.94249     -2.11641         0.019324     -0.017694      0.004514
O	     12.77907      3.93585     -6.30975        -0.004120     -0.000679      0.001851
O	     14.67137      5.97400    -10.52302        -0.053093      0.014773     -0.003154
O	      6.25164      1.89019     -1.98730        -0.015571      0.012788      0.011973
O	      8.34203      3.99995     -6.14906         0.005592      0.013101      0.002434
O	     10.73104      6.04054    -10.38500         0.048175      0.035244     -0.034245
O	     10.48595     -0.21309     -3.99640        -0.004599      0.016568      0.051102
O	     12.57168      1.83130     -8.25343        -0.015494      0.008366      0.002302
O	     14.67517      3.90351    -12.42344         0.019826      0.021406     -0.013904
O	      8.29721      6.14478      0.13223        -0.009354      0.013333     -0.002366
O	     10.42384      8.23334     -4.03592         0.002607      0.022408     -0.012280
O	     12.52780     10.30741     -8.16879        -0.016553      0.006832      0.044993
O	     12.73841      4.05764     -1.99748         0.047506      0.015273     -0.026713
O	     14.66836      6.06985     -6.18713        -0.008211      0.002821     -0.005468
O	     16.81190      8.06024    -10.37527         0.012733     -0.020079     -0.024600
O	      4.29468      2.22286     -4.32644        -0.000619     -0.017317      0.015014
O	      6.42047      4.31231     -8.49453         0.010035     -0.013263      0.004024
O	      8.50849      6.42919    -12.71869         0.006388     -0.012464     -0.048335
O	      8.53503      0.06713     -6.38128         0.014940     -0.006751      0.003143
O	     10.46553      2.07974    -10.57066        -0.048279     -0.010077      0.026776
O	     12.70863      4.35721    -14.71819        -0.009125      0.016402      0.016675
O	      6.37621      6.45640     -2.21321        -0.006419     -0.014000     -0.001924
O	      8.46679      8.56674     -6.37500         0.017577     -0.019349     -0.013367
O	     10.30447     10.69598    -10.50267        -0.049199     -0.039937      0.029173
O	     10.63212      4.30585     -4.31519         0.014055     -0.008419     -0.002321
O	     12.71734      6.35003     -8.57187         0.009445     -0.014208     -0.057519
O	     14.84614      8.51352    -12.67053        -0.024465     -0.026720      0.016348
O	      4.07394      2.26840     -0.04597        -0.015168     -0.017587     -0.012179
O	      6.17209      4.34123     -4.15532        -0.002256     -0.016449     -0.006543
O	      8.30430      6.46182     -8.27769        -0.002376     -0.004969      0.005886
O	      8.53194      0.16303     -2.04508         0.056617     -0.009623     -0.000256
O	     10.42436      2.20093     -6.25896         0.004109      0.009301      0.003751
O	     12.53957      4.19458    -10.45207        -0.025975      0.019627     -0.004941
O	      6.13716      6.55500      2.10831        -0.017956      0.041766      0.004736
O	      8.26739      8.59796     -2.06175        -0.007336     -0.003760      0.000285
O	     10.60204     10.67175     -6.22657         0.082293     -0.064760     -0.009859
O	     10.40368      4.36834     -0.12247        -0.004402     -0.014099     -0.008725
O	     12.50055      6.43014     -4.17381        -0.003604     -0.015064     -0.000249
O	     14.59675      8.48226     -8.40099        -0.019490     -0.025913     -0.027459
O	      2.12786      1.97110     -2.21548         0.004171     -0.013328     -0.015297
O	      4.23142      4.01976     -6.40996        -0.001362     -0.002742     -0.008024
O	      6.32934      6.16914    -10.52885         0.011669      0.006156     -0.031845
O	      6.37401     -0.15657     -4.18753         0.003029      0.004176      0.003275
O	      8.50483      1.89804     -8.47326        -0.003743     -0.000708     -0.075064
O	     10.57016      3.95133    -12.65921        -0.009993      0.011184     -0.016237
O	      4.21687      6.18605     -0.09792         0.007707     -0.005334      0.009628
O	      6.31113      8.28542     -4.29732         0.000784      0.018850     -0.032307
O	      8.43843     10.40721     -8.36699        -0.007150      0.007541     -0.062623
O	      8.43508      4.08856     -2.23259         0.001636      0.003850     -0.021555
O	     10.57269      6.14581     -6.40585         0.002936     -0.013448     -0.003646
O	     12.80405      8.06256    -10.59364        -0.003253     -0.063115     -0.020203
O	      4.14566      4.31101     -1.95636        -0.000527      0.011348      0.007963
O	      6.28425      6.36884     -6.12995        -0.003999     -0.013299      0.022209
O	      8.23183      8.67364    -10.29416         0.001081      0.067587      0.017914
O	      8.40741      2.17135     -4.06515         0.000688     -0.012790      0.031291
O	     10.50124      4.27100     -8.26457        -0.003304      0.005946     -0.007172
O	     12.59676      6.32909    -12.52078         0.014281     -0.003990      0.063701
O	      6.21362      8.55827      0.11105         0.002492      0.003426      0.072807
O	      8.34443     10.61313     -4.17469        -0.004593     -0.002121     -0.004525
O	     10.46474     12.78548     -8.22904         0.009701     -0.013289      0.022039
O	     10.48710      6.43701     -1.95267        -0.002851      0.001092      0.013971
O	     12.59051      8.48523     -6.14667        -0.000650      0.020513      0.011156
O	     14.70654     10.56773    -10.35830        -0.013895     -0.008996      0.023221
