# total energy = -801.55370897 eV
 
CRYSTAL
PRIMVEC
3.814194 8.718462 4.012580 
7.860556 -4.475991 -4.034126 
5.799319 6.516684 -0.013837 
PRIMCOORD
116 1
Li	      3.93898      2.12909     -2.02407         0.008091     -0.005668     -0.006398
Li	      7.89332      0.12031     -4.09703         0.010408      0.035216     -0.004150
Li	      5.82099      6.68588     -0.02813         0.007845      0.019875     -0.014668
Li	      3.94667     -0.01442     -4.04681         0.003520      0.010973      0.003015
Li	      5.77868      4.28042     -2.02635        -0.004661     -0.010389     -0.000290
Li	      5.78654      2.13639     -4.04895        -0.004826      0.005760      0.009386
Li	      9.69256     -0.33073     -6.01018        -0.007176     -0.036921      0.007305
Li	      7.71868      6.29924     -2.03197        -0.006168     -0.022421      0.013621
Mn	      7.77201      4.21914     -4.07107         0.012766      0.031525     -0.025326
Mn	      9.64424      6.46681     -8.02757         0.059880      0.056837     -0.066230
Mn	     11.61194      8.66716    -11.95851         0.008094     -0.062759      0.028993
Mn	     11.62648      2.02085     -6.02194        -0.041382      0.049825     -0.069417
Mn	     13.55953      4.19970    -10.08085         0.073542      0.008226      0.013920
Mn	     15.52395      6.41328    -13.97773         0.016269     -0.058117      0.057733
Mn	      9.64976      8.60956     -2.10594        -0.002245      0.055774     -0.013803
Mn	     11.55849     10.82816     -6.06247         0.037104     -0.007968     -0.020259
Mn	      9.69259      4.33056    -13.97422         0.032403     -0.092513      0.015397
Mn	     13.52959      6.33550     -4.05913         0.005237      0.018646     -0.071970
Mn	     15.47663      8.56463     -8.10113         0.038429      0.008271     -0.015550
Mn	     13.58938      2.06177    -16.04247         0.010827      0.004030     -0.042439
Mn	      1.94145      2.13202      0.15507         0.010892     -0.055358      0.009841
Mn	      3.81552      4.35007     -4.22224        -0.022390      0.050756     -0.007932
Mn	      5.79655      6.50127     -8.12055        -0.014941     -0.006355     -0.018350
Mn	      5.90992     -0.08440     -1.85106         0.023632     -0.048743      0.008929
Mn	      7.78398      2.13349     -6.22785        -0.011299      0.055366     -0.009766
Mn	      9.72820      4.28054    -10.07605         0.016200      0.009226      0.018226
Mn	      3.80104      6.57841      2.08500        -0.002776     -0.018762      0.035299
Mn	      5.72519      8.69771     -2.18780        -0.004369      0.089853      0.018141
Mn	      7.69983     10.85681     -6.09304        -0.008627      0.015229     -0.004566
Mn	      7.81409      4.28667      0.12745         0.006762     -0.092162     -0.018371
Mn	      9.73846      6.40574     -4.14560         0.001469      0.018237     -0.036330
Mn	     11.63928      8.64363     -8.09106         0.006802     -0.014156      0.004609
Mn	      1.95323      0.04657     -2.00219        -0.014132     -0.026446      0.024407
Mn	      7.72694     10.83344     -2.22573        -0.009716      0.065349     -0.025604
Mn	      9.69471     13.03361     -6.15712        -0.067119     -0.050936      0.067447
Mn	      5.95924     -2.23121     -4.08525         0.043296     -0.053754      0.068512
Mn	     11.67551      8.61146     -4.24014        -0.017130      0.054095     -0.059932
Mn	      9.82574      2.10628    -12.14976        -0.071203     -0.009295     -0.016515
Mn	      3.88981      4.37445      0.04564         0.004323     -0.056618      0.012902
Mn	      5.83201      6.45200     -4.22195        -0.030591      0.090420     -0.015342
Mn	      7.78039      8.67245     -8.12129        -0.038023      0.000125      0.020430
Mn	      7.87077      2.17263     -2.03570        -0.007737     -0.018359      0.071293
Mn	      9.79576      4.24447     -6.18867        -0.015200     -0.001097      0.044899
Mn	     11.72279      6.45966    -10.11740        -0.039971     -0.000476      0.016158
O	      3.93948     -0.19935     -2.06036        -0.053504     -0.007535     -0.009222
O	      5.83352      1.83191     -6.01252        -0.039723     -0.059921     -0.005780
O	      7.78589      4.01282    -10.08411         0.008303     -0.035374      0.003401
O	      7.83818     -2.50461     -3.96950        -0.072441     -0.027439     -0.021856
O	      9.77432     -0.43516     -7.99175        -0.026674     -0.042526     -0.002401
O	     11.72640      1.75757    -12.08548         0.024035     -0.036317     -0.003746
O	      5.81846      4.12662     -0.04068        -0.053691     -0.002336     -0.013098
O	      7.76248      6.13912     -4.00559         0.004798     -0.036089     -0.000307
O	      9.68787      8.36761     -8.00923        -0.032665     -0.071528     -0.014015
O	      9.73719      1.82329     -1.95508        -0.010015     -0.002901     -0.014416
O	     11.67927      3.91767     -6.04700        -0.050077     -0.066168     -0.013797
O	     13.61618      6.10852    -10.03091        -0.017989     -0.043375     -0.010923
O	      5.90139      1.94417     -1.93929         0.018572      0.047399      0.025005
O	      7.85648      4.03870     -6.00109         0.048217     -0.011240      0.046795
O	      9.78903      6.24419     -9.95117         0.021718     -0.035541      0.038314
O	      9.81885     -0.37533     -3.93925         0.012459      0.036156      0.039682
O	     11.77374      1.78105     -7.97296         0.039791      0.015897      0.065109
O	     13.71005      3.97273    -12.02142         0.030819     -0.038714      0.010055
O	      7.80072      6.29091      0.03816        -0.007028      0.059161      0.049699
O	      9.76682      8.36101     -4.02870         0.032430     -0.037555      0.040528
O	     11.71456     10.60259     -7.99032         0.037337     -0.006063      0.031370
O	     11.74155      4.05015     -1.89121         0.031344     -0.001180      0.070071
O	     13.66913      6.12834     -6.01664         0.025536     -0.016706      0.069924
O	     15.62928      8.33710    -10.03494         0.050760     -0.008353      0.028169
O	      3.82433      2.32117     -4.13436        -0.018723     -0.049868     -0.023041
O	      5.73548      4.53759     -8.24615        -0.021400      0.034491     -0.037371
O	      7.66807      6.74361    -12.19577        -0.046869      0.008675     -0.048058
O	      7.76712      0.16516     -6.16738        -0.012082     -0.038599     -0.042203
O	      9.67523      2.33309    -10.20914        -0.027939      0.036444     -0.010526
O	     11.61141      4.52542    -14.25768        -0.043936     -0.014680     -0.060898
O	      5.73871      6.69329     -2.09869         0.002839     -0.057133     -0.051110
O	      7.62452      8.89767     -6.19338        -0.038261      0.010807     -0.033562
O	      9.57200     11.13973    -10.15500        -0.028353      0.038092     -0.046436
O	      9.65835      4.45805     -4.20376        -0.031751      0.000111     -0.073289
O	     11.57005      6.68733     -8.18376        -0.048302      0.004596     -0.028552
O	     13.53025      8.89669    -12.20176        -0.029941      0.018424     -0.068033
O	      3.89197      2.43365     -0.06098         0.037812      0.058833      0.007220
O	      5.78581      4.46487     -4.01287         0.056141      0.005818      0.009447
O	      7.73898      6.76898     -8.11291        -0.007527      0.044411     -0.002800
O	      7.81186      0.22476     -2.11532         0.025911      0.042847     -0.001077
O	      9.74769      2.29410     -6.13722         0.072147      0.024963      0.023516
O	     11.65880      4.54845    -10.14519        -0.021056      0.036125      0.002074
O	      5.77669      6.84514      1.94541        -0.004595      0.037369      0.000334
O	      7.72117      8.85739     -2.02024         0.050324      0.001653      0.014097
O	      9.65120     11.13305     -6.17562         0.029526      0.072385      0.016615
O	      9.72048      4.59042     -0.04841         0.049165      0.062436      0.019367
O	     11.66309      6.68479     -4.14014         0.011392      0.003122      0.014789
O	     13.58321      8.91579     -8.18782         0.018906      0.044943      0.012983
O	      2.00340      1.97368     -2.07813        -0.009534     -0.030473     -0.054894
O	      3.88626      3.99839     -6.19524         0.008554     -0.092120     -0.076876
O	      5.88141      6.23127    -10.14295         0.022388     -0.030303      0.040313
O	      5.91849     -0.26912     -4.16938         0.007654     -0.020150     -0.046854
O	      7.81757      1.78971     -8.19005         0.006670     -0.089774     -0.068905
O	      9.82452      4.03429    -12.11132         0.009587     -0.023065     -0.001668
O	      3.92663      6.27391     -0.00557        -0.008290     -0.036004     -0.004872
O	      5.83579      8.33322     -4.16282        -0.015826     -0.104956     -0.098826
O	      7.71005     10.58954     -8.10494         0.026541     -0.027580     -0.037047
O	      7.73791      4.09370     -2.11926         0.012487     -0.020931     -0.056668
O	      9.79015      6.13267     -6.10467        -0.012147     -0.057680      0.031108
O	     11.67823      8.38192    -10.10799         0.024995     -0.026155     -0.032097
O	      3.80687      4.53465     -1.90353        -0.003075      0.020340      0.048167
O	      5.70076      6.74745     -6.08464        -0.011383      0.021999      0.002620
O	      7.70782      8.99254    -10.00594        -0.008643      0.089453      0.065984
O	      7.72200      2.29204     -3.99565         0.009913      0.030833      0.051193
O	      9.64282      4.55082     -8.05438        -0.019956      0.030364     -0.041019
O	     11.63821      6.78385    -12.00161        -0.006086      0.094690      0.074988
O	      5.80159      8.89027      0.05826        -0.014991      0.019420      0.060161
O	      7.66028     11.11873     -4.07632        -0.023363      0.026177      0.027775
O	      9.54837     13.36807     -8.08003         0.015246      0.053245     -0.030896
O	      9.61323      6.71010     -2.05455         0.005827      0.037001      0.002517
O	     11.62805      8.91092     -6.07872        -0.025156      0.024952      0.038392
O	     13.50271     11.16766    -10.02102         0.016739      0.108359      0.098099
