# total energy = -801.73185784 eV
 
CRYSTAL
PRIMVEC
3.819225 8.702606 3.999199 
7.868626 -4.471078 -4.011682 
5.786769 6.527966 -0.013701 
PRIMCOORD
116 1
Li	      3.92244      2.27120     -2.02931         0.033669      0.032316     -0.008582
Li	      7.97252      0.02755     -4.18800        -0.004700      0.030068     -0.007887
Li	      5.83947      6.50727     -0.02979         0.037584     -0.002126     -0.016023
Li	      3.90950     -0.04002     -4.02764         0.000530     -0.002083      0.002469
Li	      5.81852      4.30879     -2.02783         0.001942     -0.001106      0.002212
Li	      5.79789      2.11291     -4.02711        -0.035656      0.000761      0.013640
Li	      7.71463      6.34816     -2.02702        -0.033436     -0.032032      0.007797
Li	     11.53288      4.11931     -3.88063         0.006055     -0.029474      0.008453
Mn	      7.76254      4.23738     -4.06027        -0.018588      0.017187     -0.009351
Mn	      9.64247      6.47810     -8.03053         0.054978      0.019079     -0.047376
Mn	     11.60312      8.67909    -11.95048         0.013884     -0.024554      0.034554
Mn	     11.61517      2.00238     -6.02176         0.006762      0.004963     -0.055189
Mn	     13.56499      4.21217    -10.06452         0.037887     -0.032021     -0.028256
Mn	     15.52253      6.39331    -13.97900        -0.006027      0.003891      0.009093
Mn	      9.64369      8.62255     -2.10465        -0.019520      0.010572     -0.000008
Mn	     11.55301     10.82137     -6.03879         0.046114      0.008627     -0.060366
Mn	      9.69932      4.30351    -13.96617         0.015227     -0.046548      0.022528
Mn	     13.53677      6.37517     -3.98581         0.009803     -0.004730     -0.024334
Mn	     15.47657      8.57023     -8.05641         0.048418     -0.027316     -0.003894
Mn	     13.58464      2.07075    -15.98672         0.013735     -0.004152      0.022233
Mn	      1.93928      2.14547      0.09865        -0.005692      0.004338      0.017830
Mn	      3.80009      4.35846     -4.17131        -0.014590      0.011242      0.017543
Mn	      5.78640      6.51255     -8.09887        -0.013820     -0.005109     -0.001887
Mn	      5.91695     -0.09636     -1.86211         0.017702     -0.005616     -0.003577
Mn	      7.80051      2.12759     -6.19323        -0.009246      0.016583     -0.026778
Mn	      9.72755      4.28765    -10.07509         0.007282      0.010225      0.014242
Mn	      3.83649      6.49056      2.13669         0.010962     -0.013658      0.026401
Mn	      5.72008      8.71424     -2.19369        -0.018502      0.008475      0.003580
Mn	      7.69572     10.85917     -6.09257        -0.005966     -0.007733     -0.016391
Mn	      7.83725      4.25948      0.11453         0.014064     -0.008609     -0.016579
Mn	      9.69758      6.47280     -4.15468         0.004914     -0.003889     -0.018717
Mn	     11.63708      8.63399     -8.06846         0.012878      0.008735     -0.000213
Mn	      1.99361     -0.00409     -1.95209         0.015447     -0.015893      0.001982
Mn	      7.72468     10.84244     -2.20231        -0.020218      0.045416     -0.022244
Mn	      5.87025      4.32532    -10.12940        -0.045241     -0.007338      0.060009
Mn	      5.96882     -2.22797     -4.08278        -0.008198      0.001593      0.028359
Mn	     11.70751      8.60438     -4.19311        -0.007388      0.006581     -0.023397
Mn	      9.81560      2.10515    -12.12331        -0.048219      0.029116      0.003305
Mn	      3.87455      4.38059      0.00436         0.020954     -0.014126      0.005827
Mn	      5.82054      6.46696     -4.21680        -0.015069      0.026222     -0.035905
Mn	      7.78079      8.66838     -8.13641        -0.055945     -0.015083      0.043484
Mn	      7.89039      2.14454     -2.04602        -0.006782     -0.004800      0.054566
Mn	      9.76963      4.28183     -6.20002         0.005544     -0.004042     -0.008952
Mn	     11.72705      6.46337    -10.11409        -0.038798      0.031653      0.027281
O	      3.94442     -0.24640     -2.05971        -0.062678      0.006021      0.007696
O	      5.82849      1.85002     -5.99610        -0.029461     -0.017532     -0.013933
O	      7.77756      4.01947    -10.04247        -0.044639     -0.033623      0.009242
O	      7.84843     -2.50139     -3.98041        -0.021159     -0.016174     -0.019780
O	      9.76721     -0.42882     -8.00728        -0.072416     -0.016992      0.006085
O	     11.71469      1.77263    -12.03729        -0.037518     -0.019912      0.009558
O	      5.82915      4.13954     -0.04878        -0.039277      0.008257     -0.001087
O	      7.74240      6.16379     -3.99483        -0.014169     -0.011199     -0.013052
O	      9.68835      8.37564     -8.03805        -0.047378     -0.031255      0.003729
O	      9.75930      1.79224     -1.93498        -0.043570     -0.018438     -0.019835
O	     11.67990      3.93815     -5.93166        -0.055133     -0.012365      0.002476
O	     13.62603      6.11849    -10.02925        -0.040218     -0.020439      0.007707
O	      5.91066      1.92732     -1.94574        -0.024494      0.045800      0.022630
O	      7.85488      4.05099     -6.00188         0.024992     -0.032322      0.024619
O	      9.79739      6.24998     -9.95273         0.011879     -0.008291      0.034003
O	      9.84023     -0.36625     -3.87185         0.012747      0.012697      0.028382
O	     11.76458      1.78722     -7.97285         0.007093      0.003680      0.055976
O	     13.72130      3.98811    -12.00329         0.014753     -0.023427      0.013503
O	      7.81716      6.26579      0.02820        -0.026457      0.041668      0.009084
O	      9.76623      8.39878     -4.02538         0.016381     -0.045837      0.045719
O	     11.70555     10.59103     -7.96271         0.004457      0.003967      0.022612
O	     11.78066      3.97480     -1.90769         0.024562      0.017387      0.070820
O	     13.67558      6.15129     -5.93881         0.012143      0.008750      0.052229
O	     15.62980      8.33668     -9.99119         0.013150     -0.013220      0.019683
O	      3.82035      2.35178     -4.08494         0.019738     -0.040626     -0.009934
O	      5.71794      4.55562     -8.20577        -0.005497     -0.006345     -0.020358
O	      7.65717      6.74743    -12.14269        -0.011384      0.046371     -0.043521
O	      7.72541      0.17220     -6.16100        -0.027573     -0.016955     -0.071818
O	      9.66218      2.33916    -10.18871        -0.016312      0.008497     -0.020404
O	     11.61664      4.52350    -14.24139        -0.005644     -0.013749     -0.055388
O	      5.72615      6.69074     -2.11009         0.027139     -0.043338     -0.020512
O	      7.62588      8.89708     -6.21398        -0.009764      0.005466     -0.035924
O	      9.56864     11.09510    -10.16547        -0.023489      0.028387     -0.023474
O	      9.66542      4.51339     -4.19542        -0.014478     -0.013814     -0.030915
O	     11.57051      6.68757     -8.17534        -0.013795      0.020851     -0.010114
O	     13.52806      8.88764    -12.20624        -0.007631     -0.002712     -0.055066
O	      3.89464      2.45420     -0.06122         0.017197      0.008568      0.014297
O	      5.80768      4.47815     -4.00703         0.040114     -0.012942      0.003323
O	      7.73504      6.77079     -8.12863         0.047445      0.037458     -0.003421
O	      7.82530      0.20868     -2.13614         0.059863      0.014781     -0.004916
O	      9.74653      2.35496     -6.13381         0.033904      0.016153      0.021650
O	     11.66591      4.55694    -10.14908         0.043514      0.020261     -0.008971
O	      5.80865      6.76819      1.93943         0.030851      0.017365      0.012580
O	      7.69313      8.86434     -1.99690         0.057280     -0.008671     -0.003007
O	      9.64554     11.12726     -6.12570         0.046911      0.037338     -0.010242
O	      9.73861      4.57584     -0.06256         0.074085      0.015236     -0.001519
O	     11.65691      6.64875     -4.08740         0.022028      0.021061      0.016439
O	     13.57727      8.90260     -8.14211         0.042691      0.023061     -0.009275
O	      2.03234      1.89569     -1.98943        -0.007777     -0.016735     -0.007439
O	      3.90186      4.01656     -6.15064        -0.015560     -0.039657     -0.091876
O	      5.83512      6.24280    -10.12081         0.022204     -0.012422     -0.046725
O	      5.91682     -0.26539     -4.15395        -0.013156     -0.009310     -0.075178
O	      7.85883      1.79578     -8.13873        -0.006022     -0.056287     -0.019855
O	      9.79851      4.02810    -12.11037         0.028004      0.000341     -0.014651
O	      3.90312      6.30840     -0.03206        -0.005689     -0.010579     -0.036325
O	      5.80003      8.34599     -4.16943        -0.001675     -0.053192     -0.093615
O	      7.74220     10.57946     -8.12417         0.007533     -0.009999     -0.036893
O	      7.76142      4.07474     -2.11835         0.004724     -0.001780     -0.075771
O	      9.76304      6.17728     -6.11117         0.001214     -0.055255      0.008398
O	     11.71122      8.38771    -10.09282         0.023960      0.000206      0.015517
O	      3.87579      4.54334     -1.93778        -0.008062     -0.003981      0.079595
O	      5.71304      6.75892     -6.07418        -0.025250      0.001163     -0.014518
O	      7.66073      8.96898    -10.05550        -0.006539      0.055811     -0.007719
O	      7.73384      2.30955     -4.02412         0.008229      0.009786      0.037487
O	      9.68104      4.56719     -8.04306        -0.010586      0.008469      0.039824
O	     11.62371      6.80012    -11.99746         0.000530      0.056552      0.094431
O	      5.72022      8.88344      0.09688         0.019632      0.007532      0.074227
O	      7.62644     11.11850     -4.05833        -0.032281     -0.000947      0.013689
O	      9.56471     13.35033     -8.02950         0.003373      0.056952      0.017476
O	      9.60445      6.72278     -2.06742         0.009945      0.013924      0.006054
O	     11.58846      8.90389     -6.04757        -0.026755      0.011082      0.041969
O	     13.52216     11.12937    -10.01764         0.014487      0.043826      0.092837
