# total energy = -802.21001146 eV
 
CRYSTAL
PRIMVEC
3.775192 8.720487 4.060666 
7.819372 -4.498494 -4.075417 
5.758398 6.474935 -0.013887 
PRIMCOORD
116 1
Li	      3.94187      2.44508     -2.05102         0.044112     -0.008336     -0.034785
Li	      7.85179      0.19619     -4.08884         0.043965     -0.008256     -0.033924
Li	      7.53872      8.41576      0.00238        -0.002212     -0.021527     -0.017705
Li	     11.44860      6.16630     -2.03506        -0.003384     -0.021692     -0.019044
Li	      5.73639      2.07369     -4.02182        -0.036108      0.007060      0.026128
Li	      9.64599     -0.17645     -6.05965        -0.035271      0.007742      0.026154
Li	      7.60127      6.12343     -1.99184        -0.028697     -0.012527      0.010002
Li	     11.51048      3.87432     -4.02951        -0.028453     -0.012823      0.009817
Mn	      7.70256      4.19676     -4.07638         0.015481      0.027403     -0.048110
Mn	      9.59066      6.38627     -8.16321         0.047566      0.001933     -0.036553
Mn	     11.53850      8.61945    -12.04378         0.031279     -0.005449      0.042326
Mn	      3.79289      6.44575     -2.03871         0.013562      0.027580     -0.048026
Mn	     13.50016      4.13719    -10.20099         0.047966      0.000959     -0.035910
Mn	     15.44823      6.37008    -14.08137         0.030575     -0.007217      0.042611
Mn	      9.54190      8.58794     -2.03271        -0.006544      0.023902     -0.021868
Mn	     11.46689     10.75830     -6.06882        -0.024693     -0.008407     -0.036922
Mn	      9.60785      4.27039    -14.02818         0.017732     -0.077626      0.017556
Mn	     13.45159      6.33867     -4.07053        -0.008773      0.025364     -0.021310
Mn	     15.37660      8.50901     -8.10670        -0.026430     -0.007358     -0.034571
Mn	     13.51748      2.02082    -16.06550         0.018038     -0.074402      0.014832
Mn	      1.96161      2.18463      0.16897         0.000592      0.019420      0.004210
Mn	      3.81140      4.35694     -4.22849         0.008094      0.004492      0.020193
Mn	      5.75207      6.46045     -8.13202         0.026305      0.020960     -0.000327
Mn	      5.87140     -0.06466     -1.86883         0.000384      0.020744      0.004015
Mn	      7.72114      2.10770     -6.26608         0.008230      0.003920      0.020236
Mn	      9.66179      4.21105    -10.16995         0.026041      0.021685      0.000840
Mn	      3.81679      6.54086      2.19939         0.002358     -0.019358     -0.001459
Mn	      5.68921      8.68668     -2.26482         0.003155     -0.001913      0.012680
Mn	      7.65371     10.83383     -6.10786        -0.003321     -0.012224     -0.025159
Mn	      7.72637      4.29187      0.16173         0.001810     -0.020939     -0.002582
Mn	      9.59877      6.43780     -4.30277         0.004107     -0.002258      0.012980
Mn	     11.56343      8.58483     -8.14560        -0.003829     -0.012411     -0.025008
Mn	      1.99026      0.04353     -1.94201        -0.042389     -0.021706      0.010932
Mn	      7.65016     10.83319     -2.18205        -0.027846      0.056806     -0.020483
Mn	      5.84438      4.30280    -10.17332        -0.041518     -0.017441      0.058428
Mn	      5.89999     -2.20551     -3.97953        -0.041098     -0.024049      0.008530
Mn	     11.55988      8.58413     -4.21959        -0.027280      0.054321     -0.020972
Mn	      9.75419      2.05372    -12.21128        -0.044362     -0.018244      0.058384
Mn	      3.91919      4.44238      0.00410         0.020154     -0.021114      0.020844
Mn	      5.79562      6.43848     -4.27186        -0.024490      0.036589      0.017474
Mn	      7.74621      8.62688     -8.19360        -0.003191      0.004220      0.044586
Mn	      7.82905      2.19289     -2.03366         0.018797     -0.017635      0.021599
Mn	      9.70541      4.18902     -6.30970        -0.025526      0.039590      0.018557
Mn	     11.65581      6.37783    -10.23137        -0.004163      0.004372      0.043929
O	      3.90094     -0.23119     -2.05965        -0.012175      0.000181      0.013818
O	      5.77945      1.80530     -6.01243        -0.013052     -0.028341     -0.002062
O	      7.75704      3.94951    -10.11967         0.028162     -0.015739      0.001816
O	      7.81061     -2.48074     -4.09727        -0.012645      0.000380      0.014024
O	      9.68913     -0.44391     -8.04995        -0.012709     -0.029523     -0.003263
O	     11.66662      1.70040    -12.15844         0.030199     -0.017561      0.003829
O	      5.80435      4.06528      0.08682        -0.050769     -0.004386     -0.017503
O	      7.71117      6.12694     -4.01584        -0.010466     -0.014052      0.003120
O	      9.63320      8.29654     -8.14101        -0.034161     -0.030223     -0.001132
O	      9.71404      1.81575     -1.95089        -0.049405     -0.003115     -0.016603
O	     11.62104      3.87737     -6.05383        -0.012341     -0.012987      0.004577
O	     13.54290      6.04739    -10.17843        -0.035070     -0.030813     -0.001872
O	      5.87161      1.89902     -1.94206        -0.004427      0.022414     -0.006723
O	      7.80490      4.00092     -6.06193         0.037714      0.012056      0.017730
O	      9.72627      6.16104    -10.10552         0.013182     -0.023157      0.004710
O	      9.78124     -0.35014     -3.97943        -0.004633      0.021894     -0.008132
O	     11.71451      1.75169     -8.09943         0.037694      0.011787      0.016567
O	     13.63619      3.91203    -12.14342         0.010837     -0.025613      0.007531
O	      7.75454      6.33303      0.19716         0.034296      0.044779      0.038816
O	      9.64277      8.35016     -3.95766         0.025673      0.025454      0.061211
O	     11.61664     10.54169     -7.99868         0.043501      0.040580      0.031556
O	     11.66424      4.08303     -1.84049         0.033351      0.047727      0.039441
O	     13.55244      6.10060     -5.99533         0.025626      0.025838      0.060287
O	     15.52625      8.29216    -10.03645         0.044307      0.041842      0.031708
O	      3.78687      2.36132     -4.13118        -0.009752     -0.030318      0.030356
O	      5.70569      4.51508     -8.21993        -0.009546     -0.000284     -0.017857
O	      7.63610      6.74335    -12.19847        -0.029255      0.010553     -0.025135
O	      7.69658      0.11202     -6.16884        -0.009795     -0.029420      0.029919
O	      9.61552      2.26562    -10.25817        -0.010193      0.002113     -0.014718
O	     11.54573      4.49399    -14.23615        -0.028190      0.013024     -0.025134
O	      5.71824      6.69723     -2.30959        -0.005406     -0.044320     -0.020603
O	      7.59834      8.85668     -6.27945        -0.036318     -0.030443     -0.035338
O	      9.53951     11.10107    -10.24885        -0.028879     -0.029031     -0.065745
O	      9.62783      4.44843     -4.34737        -0.004611     -0.046437     -0.020987
O	     11.50810      6.60769     -8.31727        -0.035936     -0.031585     -0.034859
O	     13.44905      8.85192    -12.28660        -0.028391     -0.027979     -0.066517
O	      3.87162      2.48368     -0.07400        -0.033800     -0.013635      0.008904
O	      5.78265      4.48594     -4.19917         0.034514      0.005384      0.028973
O	      7.68279      6.72584     -8.19736        -0.042225      0.022606     -0.015150
O	      7.78141      0.23428     -2.11163        -0.033691     -0.012699      0.007967
O	      9.69234      2.23656     -6.23710         0.035343      0.006362      0.030250
O	     11.59227      4.47676    -10.23565        -0.038605      0.022928     -0.014056
O	      5.74066      6.86185      2.11533         0.029650      0.035960      0.004416
O	      7.62873      8.84579     -1.94248         0.036300      0.014670     -0.013338
O	      9.57022     11.11459     -6.17720         0.059269      0.049865      0.009618
O	      9.65010      4.61274      0.07802         0.032144      0.035184      0.003222
O	     11.53844      6.59668     -3.98043         0.034847      0.014707     -0.011932
O	     13.47999      8.86554     -8.21458         0.056861      0.049143      0.008128
O	      1.94807      2.00108     -2.04218         0.004065     -0.031674      0.010518
O	      3.82046      3.98148     -6.21400         0.015873     -0.046358     -0.042508
O	      5.87283      6.22088    -10.10659        -0.023240      0.006063      0.005443
O	      5.85824     -0.24807     -4.07984         0.002312     -0.032294      0.011276
O	      7.73073      1.73232     -8.25154         0.014233     -0.045205     -0.042633
O	      9.78242      3.97168    -12.14459        -0.023760      0.007483      0.006676
O	      3.88107      6.33580     -0.11699         0.006915     -0.061353     -0.061622
O	      5.79898      8.32703     -4.26044        -0.003687     -0.053736     -0.069164
O	      7.71529     10.54549     -8.18099         0.017709     -0.007985     -0.089759
O	      7.79137      4.08645     -2.15459         0.005453     -0.061416     -0.062659
O	      9.70858      6.07769     -6.29821        -0.002544     -0.053879     -0.069081
O	     11.62480      8.29658    -10.21878         0.017134     -0.010156     -0.089439
O	      3.76842      4.52872     -1.94726        -0.012619      0.026574      0.027149
O	      5.69664      6.72444     -6.17368         0.016136     -0.004008     -0.041617
O	      7.62006      8.96830    -10.09676         0.021175      0.042948     -0.017039
O	      7.67833      2.27975     -3.98524        -0.013046      0.024583      0.028568
O	      9.60717      4.47504     -8.21140         0.015324     -0.004191     -0.042107
O	     11.53040      6.71916    -12.13458         0.018566      0.043454     -0.015882
O	      5.64123      8.93540      0.17055        -0.004703      0.039192      0.057916
O	      7.57267     11.08384     -4.03462        -0.004974      0.005810      0.078115
O	      9.50920     13.37474     -7.97119        -0.021860      0.085660      0.062632
O	      9.55112      6.68617     -1.86699        -0.004851      0.040073      0.057880
O	     11.48227      8.83474     -6.07208        -0.005129      0.004833      0.077316
O	     13.41877     11.12575    -10.00922        -0.022235      0.085663      0.063061
