# total energy = -801.94724589 eV
 
CRYSTAL
PRIMVEC
3.784890 8.724133 4.054182 
7.840201 -4.498119 -4.075656 
5.783387 6.470363 -0.013916 
PRIMCOORD
116 1
Li	      3.90001      2.20531     -2.05099         0.013151      0.024223      0.001814
Li	      7.89373      0.15450     -4.10464         0.001255      0.017413      0.003090
Li	      7.61283      8.42642     -0.01240        -0.001164      0.005097      0.006624
Li	     11.46320      6.05660     -2.11697         0.015398      0.007281      0.027550
Li	      5.78542      4.39452     -2.01811         0.000408     -0.009862     -0.017186
Li	      5.74563      2.05733     -4.03995        -0.003910     -0.009853     -0.001112
Li	      9.69429     -0.25751     -6.04887        -0.015156     -0.028603     -0.006745
Li	      7.70091      6.28323     -2.01226        -0.016127     -0.039125      0.006090
Mn	      7.73584      4.20942     -4.10933         0.048985      0.025018     -0.032830
Mn	      9.61196      6.40000     -8.13085         0.055242      0.002495     -0.002584
Mn	     11.57582      8.60296    -12.02616         0.041106     -0.026519      0.038635
Mn	     11.61171      1.97374     -6.05214        -0.014001      0.041189     -0.026539
Mn	     13.51938      4.13771    -10.15382         0.063359      0.021794     -0.026350
Mn	     15.49083      6.37685    -14.03781         0.024619      0.006699      0.025197
Mn	      9.59754      8.58335     -2.04829        -0.010132      0.026447     -0.003164
Mn	     11.50432     10.77644     -6.06011        -0.009202      0.027805     -0.028569
Mn	      9.63609      4.27960    -14.01985         0.020696     -0.084052     -0.011371
Mn	     13.49279      6.32387     -4.09549        -0.022147      0.018575     -0.014561
Mn	     15.41994      8.51305     -8.12215        -0.000483     -0.002230     -0.017652
Mn	     13.57732      1.99281    -16.07337         0.039523     -0.063025     -0.017164
Mn	      1.96212      2.14779      0.19290         0.014563     -0.019292     -0.003206
Mn	      3.79577      4.35623     -4.25388        -0.021289      0.016553      0.007962
Mn	      5.77235      6.46108     -8.12670         0.021291      0.004249      0.010660
Mn	      5.88889     -0.07447     -1.87280         0.026210     -0.013052      0.000827
Mn	      7.75361      2.10338     -6.25147         0.006239      0.021927      0.002249
Mn	      9.69433      4.23015    -10.14123         0.013017      0.018394     -0.016010
Mn	      3.80410      6.59400      2.07811        -0.007091      0.017883      0.027692
Mn	      5.69834      8.65794     -2.16764        -0.027026      0.001362     -0.011598
Mn	      7.66780     10.83138     -6.09541         0.008556     -0.014542      0.006468
Mn	      7.76869      4.28852      0.17623         0.012678     -0.017098     -0.004498
Mn	      9.64357      6.43033     -4.28679        -0.011600     -0.008058      0.000717
Mn	     11.59648      8.59120     -8.12290        -0.023247      0.001590     -0.012224
Mn	      1.97905      0.03076     -2.00059        -0.043529     -0.024113      0.009028
Mn	      7.68385     10.80709     -2.20135        -0.040827      0.039918     -0.016898
Mn	      5.86653      4.29384    -10.17772        -0.028520     -0.018422      0.005216
Mn	      5.93376     -2.22249     -3.99567        -0.024921     -0.024077      0.005858
Mn	     11.60965      8.59364     -4.21870        -0.019799      0.031920     -0.032792
Mn	      9.79154      2.06225    -12.19044        -0.084620     -0.012988      0.030027
Mn	      3.89654      4.40273      0.04642         0.003931      0.014496     -0.001386
Mn	      5.78884      6.44671     -4.23719        -0.039160      0.058986      0.013198
Mn	      7.75799      8.63372     -8.14858        -0.014469     -0.031070      0.039728
Mn	      7.84953      2.18245     -2.04807         0.042160     -0.033554      0.030846
Mn	      9.76053      4.19198     -6.27024        -0.030423      0.044297      0.036096
Mn	     11.68344      6.40384    -10.19545         0.003976     -0.036460      0.037229
O	      3.91551     -0.20906     -2.06518        -0.029894     -0.019798      0.017131
O	      5.80816      1.79495     -6.02015        -0.023328     -0.024586     -0.005839
O	      7.77778      3.95876    -10.12531         0.018895     -0.031487      0.013910
O	      7.84000     -2.50095     -4.11202        -0.021523     -0.005050      0.024258
O	      9.73182     -0.44278     -8.04468        -0.043385     -0.022492     -0.023602
O	     11.70250      1.70080    -12.15992         0.017502     -0.022672     -0.005456
O	      5.81713      4.08183     -0.04808        -0.043782     -0.009632     -0.003494
O	      7.72267      6.13703     -4.02948        -0.048603     -0.032500      0.003849
O	      9.65542      8.30752     -8.07838        -0.055327     -0.027662     -0.028029
O	      9.71655      1.83273     -1.92697        -0.057098     -0.013021     -0.041440
O	     11.64686      3.87088     -6.09937        -0.029013     -0.043963     -0.020815
O	     13.57747      6.04848    -10.09996        -0.061299     -0.027772     -0.037250
O	      5.87892      1.92960     -1.94879         0.000596      0.006750     -0.006210
O	      7.82608      4.00429     -6.05769         0.037167     -0.010171      0.036044
O	      9.75112      6.18183    -10.07168         0.027506     -0.024276      0.011887
O	      9.80616     -0.37457     -3.96552         0.015175      0.004169      0.009961
O	     11.73270      1.75273     -8.06276         0.044922      0.000404      0.005417
O	     13.66857      3.91280    -12.10385         0.021006     -0.028320      0.023076
O	      7.79822      6.33304      0.16356         0.011226      0.041136      0.055325
O	      9.69846      8.35580     -3.97730         0.018484      0.007486      0.063791
O	     11.66194     10.55463     -7.98383         0.034095      0.017895      0.041880
O	     11.69483      4.08494     -1.83159         0.025663      0.041493      0.049737
O	     13.60621      6.08466     -6.01971         0.014456      0.012563      0.063870
O	     15.57404      8.29485    -10.05271         0.025726      0.020008      0.063261
O	      3.80065      2.34634     -4.14017        -0.017641     -0.015724     -0.003039
O	      5.72249      4.50956     -8.22725        -0.028420      0.029137     -0.006092
O	      7.66312      6.71074    -12.20747        -0.035593      0.016160     -0.020612
O	      7.74152      0.11865     -6.16608        -0.028273     -0.011541     -0.012643
O	      9.64835      2.28072    -10.24036        -0.009696      0.011322     -0.037390
O	     11.58619      4.48226    -14.23737        -0.043004      0.010916     -0.022768
O	      5.72822      6.63524     -2.24535         0.002359     -0.037120     -0.045657
O	      7.59905      8.85659     -6.22661        -0.018678     -0.006772     -0.053034
O	      9.56321     11.12043    -10.20502        -0.025230     -0.009047     -0.071423
O	      9.62080      4.45433     -4.32334        -0.030253     -0.026561     -0.052328
O	     11.52735      6.62443     -8.27054        -0.026731     -0.024568     -0.057994
O	     13.48864      8.84617    -12.26919        -0.022297     -0.015765     -0.054914
O	      3.87581      2.43487     -0.06707         0.019280      0.011408      0.016539
O	      5.76517      4.46721     -4.04225         0.041406      0.009099     -0.016712
O	      7.69807      6.73172     -8.15428        -0.023157      0.036335     -0.002541
O	      7.79963      0.23455     -2.12882         0.028588      0.015497      0.015080
O	      9.71709      2.24222     -6.19005         0.019124      0.016086     -0.009576
O	     11.61336      4.49297    -10.21628        -0.005861      0.035344      0.024355
O	      5.75311      6.86402      2.05391         0.050724      0.051789      0.021380
O	      7.66960      8.81389     -1.96918         0.035914      0.000962      0.007375
O	      9.60139     11.11289     -6.17108         0.061924      0.030623      0.031122
O	      9.68060      4.59858      0.05624         0.040059      0.043259      0.021382
O	     11.58593      6.63442     -4.01969         0.043894      0.007235      0.010948
O	     13.52360      8.87593     -8.20980         0.075066      0.024989      0.038775
O	      1.93156      1.98309     -2.08843         0.002740      0.000559     -0.004805
O	      3.86503      3.96101     -6.22392        -0.000450     -0.023178     -0.019183
O	      5.90341      6.20949    -10.09874        -0.040822      0.006977      0.037495
O	      5.89198     -0.26419     -4.12150        -0.003406     -0.006859     -0.027487
O	      7.76972      1.74604     -8.22901         0.020358     -0.021824     -0.031695
O	      9.82229      3.98203    -12.13825        -0.035825     -0.005905      0.010211
O	      3.87533      6.26777     -0.05909        -0.009387     -0.034685     -0.083394
O	      5.79592      8.31606     -4.20455         0.005555     -0.054838     -0.058365
O	      7.70786     10.55023     -8.12761         0.041647      0.003585     -0.079898
O	      7.73442      4.10213     -2.16048         0.005983     -0.007542     -0.053959
O	      9.74234      6.07818     -6.26857         0.013007     -0.041190     -0.069004
O	     11.64750      8.32269    -10.18816         0.024807      0.002919     -0.078122
O	      3.81045      4.51948     -1.91171         0.005826     -0.022138      0.015806
O	      5.66705      6.72024     -6.13620         0.038593     -0.009065     -0.033090
O	      7.66733      8.97498    -10.03409        -0.024358      0.027767      0.000654
O	      7.69456      2.28568     -4.00559         0.010173      0.008983      0.040590
O	      9.59445      4.48618     -8.18513         0.036886     -0.007569     -0.056209
O	     11.60986      6.72348    -12.07744        -0.008135      0.027268      0.013073
O	      5.73712      8.94286      0.11619        -0.004243      0.015768      0.063777
O	      7.61468     11.08808     -4.05675        -0.024693      0.007867      0.056908
O	      9.54415     13.35682     -7.99854        -0.008915      0.057267      0.064884
O	      9.61200      6.67964     -1.90825         0.006213      0.014322      0.049196
O	     11.54559      8.85723     -6.06321        -0.028964     -0.003558      0.074755
O	     13.42951     11.13360    -10.00185         0.007221      0.073884      0.068007
