# total energy = -801.71819462 eV
 
CRYSTAL
PRIMVEC
3.819076 8.720677 4.011518 
7.863575 -4.479490 -4.021135 
5.786365 6.528710 -0.013725 
PRIMCOORD
116 1
Li	      3.95055      2.14656     -2.01759         0.012282     -0.003363     -0.007173
Li	      5.86004      6.50913     -0.01245         0.012743     -0.003894     -0.007012
Li	      7.70167      8.63844     -0.02642        -0.001571     -0.015587     -0.001460
Li	      5.79219      4.27519     -2.03219        -0.001673     -0.014951     -0.001443
Li	      5.82782      1.96515     -4.02105        -0.011097     -0.024693     -0.006871
Li	      9.60865     -0.22778     -5.88888        -0.001501     -0.002634     -0.004824
Li	      7.73709      6.32207     -2.01565        -0.011173     -0.020706     -0.007076
Li	     11.51833      4.12528     -3.88177        -0.002914     -0.001785     -0.005646
Mn	      7.75063      4.26904     -4.06311         0.004486     -0.011967     -0.018209
Mn	      9.64552      6.45978     -8.06277         0.041667      0.025713     -0.041393
Mn	     11.61999      8.69870    -11.95676         0.031447     -0.088240      0.033991
Mn	     11.62905      2.02612     -6.01585        -0.033826      0.036501     -0.084589
Mn	     13.56451      4.19902    -10.08883         0.042902     -0.004924     -0.001525
Mn	     15.48280      6.42300    -14.00552        -0.014073      0.006825      0.029099
Mn	      9.65890      8.63015     -2.05906         0.001004     -0.011733     -0.015623
Mn	     11.55505     10.81979     -6.05909         0.044987      0.030439     -0.037212
Mn	      9.71104      4.33761    -13.96411         0.030436     -0.083571      0.036102
Mn	     13.53734      6.38615     -4.00879        -0.031728      0.036899     -0.083298
Mn	     15.47397      8.55927     -8.08112         0.045026     -0.006280     -0.003603
Mn	     13.57384      2.06254    -16.00907        -0.017621      0.006118      0.026669
Mn	      1.92684      2.16325      0.13322        -0.011217     -0.020980      0.016406
Mn	      3.81795      4.36898     -4.20389        -0.011865      0.061735      0.006099
Mn	      5.78944      6.49748     -8.11318        -0.013079      0.002511     -0.012966
Mn	      5.93649     -0.06578     -1.88581         0.018248     -0.061430     -0.030769
Mn	      7.78386      2.12903     -6.17996         0.005832      0.035891      0.002100
Mn	      9.72641      4.27460    -10.09738         0.015609     -0.008804      0.001972
Mn	      3.83672      6.52237      2.14136        -0.011174     -0.024195      0.013403
Mn	      5.72764      8.72986     -2.20002        -0.012903      0.063017      0.006743
Mn	      7.69880     10.85807     -6.10781        -0.014455      0.001961     -0.010215
Mn	      7.84600      4.29453      0.11888         0.021090     -0.060569     -0.029020
Mn	      9.69397      6.48863     -4.17280         0.005002      0.030698      0.000384
Mn	     11.63575      8.63517     -8.09197         0.015628     -0.008873      0.003995
Mn	      1.98484      0.02908     -1.94986         0.004392     -0.029896      0.016177
Mn	      7.73582     10.85312     -2.20130        -0.021995      0.083369     -0.029253
Mn	      9.69202     13.02558     -6.14647        -0.056546     -0.013468      0.066233
Mn	      5.98194     -2.18861     -4.07224         0.006860     -0.026588      0.049026
Mn	     11.66626      8.63348     -4.21501        -0.025968      0.016838      0.002588
Mn	      9.81841      2.09279    -12.14986        -0.046348      0.006870     -0.001099
Mn	      3.89407      4.39041      0.05403         0.001641     -0.031307      0.019698
Mn	      5.82720      6.49175     -4.20893        -0.021582      0.083869     -0.025374
Mn	      7.78218      8.66565     -8.15467        -0.057826     -0.012359      0.069192
Mn	      7.89108      2.17181     -2.06490         0.010246     -0.026437      0.044752
Mn	      9.75767      4.27283     -6.21894        -0.028206      0.017710     -0.002154
Mn	     11.72794      6.45309    -10.14271        -0.048791      0.003503     -0.002255
O	      3.93565     -0.19876     -2.05102        -0.064287      0.005952     -0.005217
O	      5.82837      1.84531     -5.99181        -0.046394     -0.053501     -0.005354
O	      7.77646      4.00596    -10.07437        -0.010251     -0.058815     -0.000845
O	      7.85405     -2.54344     -3.96526        -0.011476     -0.020694     -0.010299
O	      9.76571     -0.41047     -7.94208        -0.030641     -0.057059     -0.014344
O	     11.71508      1.75013    -12.06487        -0.006107     -0.048372     -0.005135
O	      5.84443      4.16170     -0.04519        -0.063603      0.005218     -0.005906
O	      7.73883      6.20495     -3.98711        -0.048032     -0.053005     -0.006125
O	      9.68578      8.36670     -8.06909        -0.006605     -0.059184     -0.000746
O	      9.76330      1.81694     -1.95882        -0.015500     -0.019486     -0.009498
O	     11.67625      3.95016     -5.93656        -0.028701     -0.059147     -0.013586
O	     13.62454      6.11020    -10.05917        -0.008677     -0.047910     -0.005020
O	      5.91278      1.94914     -1.95912         0.012373      0.042791      0.040827
O	      7.84533      4.05138     -6.01121         0.051430     -0.023605      0.053915
O	      9.79882      6.23328     -9.99621         0.036696     -0.019307      0.051779
O	      9.85691     -0.35928     -3.91883         0.048409      0.005756      0.038258
O	     11.76425      1.80120     -7.95939         0.035142     -0.003329      0.077190
O	     13.71437      3.96689    -12.02475         0.061221     -0.030755      0.036963
O	      7.82245      6.30843      0.04534         0.012006      0.040384      0.034201
O	      9.75380      8.41140     -4.00802         0.052849     -0.025322      0.053577
O	     11.70824     10.59373     -7.99306         0.037324     -0.023694      0.047862
O	     11.76720      4.00010     -1.91003         0.047391      0.007650      0.042014
O	     13.67309      6.16219     -5.95182         0.036295     -0.002610      0.078869
O	     15.62446      8.32744    -10.01663         0.059402     -0.026043      0.036494
O	      3.82414      2.35295     -4.10247        -0.009054     -0.036221     -0.027514
O	      5.72383      4.53227     -8.23830        -0.038043      0.016903     -0.055843
O	      7.65652      6.76056    -12.15304        -0.028550      0.042710     -0.061354
O	      7.74527      0.16869     -6.22449        -0.030443     -0.019551     -0.066243
O	      9.66434      2.31981    -10.21537        -0.046368      0.025226     -0.015952
O	     11.62529      4.56054    -14.22109        -0.036651      0.005651     -0.072759
O	      5.73443      6.71341     -2.09896        -0.009394     -0.036441     -0.032373
O	      7.63309      8.89276     -6.23549        -0.037362      0.011652     -0.058176
O	      9.56525     11.12046    -10.14890        -0.030410      0.043212     -0.063035
O	      9.65628      4.52839     -4.21577        -0.033225     -0.014729     -0.063179
O	     11.57401      6.68033     -8.20776        -0.045570      0.029386     -0.012625
O	     13.53477      8.92110    -12.21335        -0.038603      0.008291     -0.070238
O	      3.89823      2.46254     -0.04203        -0.013019      0.049157      0.006469
O	      5.79493      4.51832     -4.00125         0.039233      0.007596     -0.000272
O	      7.73664      6.76648     -8.16921         0.032213      0.055571      0.018071
O	      7.82558      0.25138     -2.06228         0.051480      0.050106      0.018945
O	      9.74961      2.30946     -6.11674         0.064510      0.019280      0.016854
O	     11.66838      4.54682    -10.18044         0.007124      0.044303      0.012270
O	      5.80864      6.82209      1.96362        -0.011511      0.050702      0.006592
O	      7.70331      8.87992     -1.99566         0.038895      0.005737     -0.001451
O	      9.64596     11.12696     -6.16412         0.036014      0.053921      0.017960
O	      9.73609      4.61147     -0.05481         0.053470      0.051174      0.017226
O	     11.65852      6.67047     -4.11036         0.061500      0.020316      0.016722
O	     13.57787      8.90720     -8.17447         0.003951      0.044118      0.011237
O	      2.02087      1.96735     -1.99345        -0.001165     -0.023051     -0.003062
O	      3.89108      4.01286     -6.18245        -0.005918     -0.091443     -0.081424
O	      5.83738      6.22394    -10.14462         0.017331     -0.035248     -0.043640
O	      5.84419     -0.24535     -4.12545        -0.005212     -0.014103     -0.071900
O	      7.83336      1.79994     -8.17741        -0.003514     -0.078496     -0.046408
O	      9.80406      4.02128    -12.11119         0.011855     -0.027726      0.002032
O	      3.93053      6.32864      0.00924        -0.000388     -0.021445     -0.004616
O	      5.80157      8.37232     -4.17902        -0.006236     -0.093316     -0.078458
O	      7.74432     10.58410     -8.14190         0.016042     -0.035690     -0.051603
O	      7.75400      4.11564     -2.11718        -0.004646     -0.014309     -0.068638
O	      9.74462      6.16034     -6.16834        -0.003568     -0.076357     -0.038925
O	     11.71362      8.38138    -10.10301         0.013340     -0.024206      0.004083
O	      3.80683      4.56031     -1.89886        -0.003405      0.026055      0.069820
O	      5.71301      6.75453     -6.07037        -0.013904      0.030553      0.037453
O	      7.63937      8.99965    -10.06861         0.010030      0.045975     -0.030093
O	      7.72667      2.37770     -4.01157        -0.008884      0.058282      0.045958
O	      9.68247      4.54320     -8.07405        -0.007766      0.037181      0.009045
O	     11.61645      6.81250    -12.03234         0.012401      0.102216      0.102594
O	      5.71588      8.92034      0.10900        -0.003800      0.025839      0.069751
O	      7.62363     11.11530     -4.06192        -0.010758      0.031841      0.040458
O	      9.54990     13.36009     -8.05886         0.008444      0.048342     -0.028125
O	      9.63514      6.73828     -2.00924        -0.008788      0.058518      0.040281
O	     11.59155      8.90329     -6.07109        -0.006984      0.036238      0.001075
O	     13.52581     11.17217    -10.02823         0.012649      0.099130      0.098570
