# total energy = -802.04367499 eV
 
CRYSTAL
PRIMVEC
3.785604 8.728597 4.053443 
7.846069 -4.504147 -4.072180 
5.781451 6.475264 -0.013871 
PRIMCOORD
116 1
Li	      3.92229      2.30940     -2.06938         0.017757      0.022822     -0.002058
Li	      7.88561      0.10450     -4.10616        -0.002728     -0.020140      0.001144
Li	      9.73924      4.26345     -2.13442         0.015150      0.039845     -0.012594
Li	      7.55443      8.26806     -0.07534         0.014246      0.009650      0.035836
Li	     11.61036      6.31408     -2.05260        -0.007406     -0.010556      0.019985
Li	      5.94202      4.68184     -1.96344        -0.011479     -0.003043     -0.029504
Li	      5.71973      1.96769     -4.03363        -0.013341     -0.028022     -0.001955
Li	      9.71494     -0.15825     -6.05483        -0.013148     -0.008118     -0.002926
Mn	      7.69204      4.19933     -4.13912         0.036041      0.070459     -0.018770
Mn	      9.60717      6.40712     -8.10393         0.069771      0.011002     -0.015374
Mn	     11.57144      8.59741    -12.03302         0.033002     -0.058004      0.042769
Mn	     11.61277      1.97531     -6.07560         0.039564      0.038155     -0.011205
Mn	     13.52171      4.15316    -10.15032         0.065838      0.037933     -0.022778
Mn	     15.50520      6.39588    -14.03981         0.034277     -0.060794      0.025275
Mn	      9.56525      8.52908     -2.05788        -0.020689      0.027404     -0.031073
Mn	     11.49834     10.78773     -6.03385        -0.007394     -0.000416     -0.055529
Mn	      9.65176      4.25184    -14.00077         0.012986     -0.046729     -0.032753
Mn	     13.50233      6.31509     -4.09965        -0.011656      0.008214     -0.029236
Mn	     15.42788      8.52158     -8.10049        -0.000166     -0.018274     -0.033479
Mn	      5.77161      6.49570    -11.97477         0.031570     -0.078409     -0.032614
Mn	      1.98107      2.15328      0.19460         0.021418     -0.019048     -0.010155
Mn	      3.79925      4.36069     -4.24365        -0.016868      0.031962      0.008644
Mn	      5.77322      6.48172     -8.10559         0.022352      0.007609      0.003944
Mn	      5.88651     -0.11524     -1.86676         0.014688     -0.023434      0.012630
Mn	      7.73909      2.06445     -6.23403        -0.005363      0.015558     -0.001045
Mn	      9.70022      4.22763    -10.12862         0.011264      0.010836     -0.009058
Mn	      3.84309      6.56904      2.09320         0.002242     -0.015560      0.001859
Mn	      5.69736      8.65740     -2.18285        -0.001850     -0.006247      0.019843
Mn	      7.66374     10.84770     -6.08776         0.004871     -0.012786     -0.001461
Mn	      7.76311      4.27000      0.20346        -0.001636     -0.006849     -0.037559
Mn	      9.61613      6.41554     -4.25855        -0.012649      0.023802      0.025153
Mn	     11.59495      8.59891     -8.11490        -0.027037     -0.010639      0.002965
Mn	      1.99466      0.02502     -2.01322        -0.015437     -0.056792      0.023412
Mn	      7.68327     10.81364     -2.19689        -0.037983      0.039075     -0.026768
Mn	      5.86554      4.30707    -10.15591        -0.053358     -0.029331      0.015232
Mn	      5.92324     -2.25262     -4.01732        -0.036721     -0.026126      0.012938
Mn	     11.60517      8.57205     -4.21333        -0.036133      0.048140     -0.037128
Mn	      9.79785      2.05568    -12.14920        -0.082963     -0.009995      0.008103
Mn	      3.90767      4.41141      0.02275         0.010124      0.011023      0.031890
Mn	      5.80126      6.45995     -4.23514        -0.030913      0.061193      0.033999
Mn	      7.75548      8.66119     -8.14333         0.017647      0.011067      0.031278
Mn	      7.82239      2.12611     -2.06892         0.029066     -0.025486      0.057772
Mn	      9.75175      4.17147     -6.26373        -0.004100      0.073214      0.013753
Mn	     11.67740      6.41226    -10.18453        -0.001824      0.000836      0.044969
O	      3.90967     -0.25158     -2.07621        -0.047427     -0.041570      0.016218
O	      5.80482      1.74882     -6.02547         0.003607     -0.025059     -0.012122
O	      7.77942      3.96231    -10.07826         0.024392     -0.041958     -0.014661
O	      7.85453     -2.50332     -4.08078        -0.050143     -0.027092      0.001652
O	      9.73002     -0.45356     -8.03931        -0.033237     -0.028786     -0.012668
O	     11.70364      1.70338    -12.14003         0.022904     -0.033441      0.002125
O	      5.83110      4.08172     -0.06029        -0.048082     -0.028284     -0.010363
O	      7.70488      6.10919     -4.13799        -0.045113     -0.065196     -0.005171
O	      9.65597      8.31687     -8.04925        -0.042693     -0.061522     -0.031790
O	      9.72493      1.88673     -1.97082        -0.058438     -0.026681     -0.033142
O	     11.63264      3.87251     -6.10276        -0.052701     -0.070134     -0.015137
O	     13.57538      6.06451    -10.08828        -0.040190     -0.062250     -0.044220
O	      5.87538      1.87013     -1.95888         0.030048      0.000613     -0.013356
O	      7.80854      3.97280     -6.06925         0.051614     -0.032701      0.037686
O	      9.74576      6.18380    -10.04821         0.040626     -0.049327      0.029565
O	      9.82215     -0.37201     -3.98128         0.031856      0.002415      0.002536
O	     11.73027      1.75594     -8.07780         0.060259     -0.029616      0.032344
O	     13.67215      3.93214    -12.10178         0.035976     -0.045564      0.047618
O	      7.79916      6.29321      0.24853         0.030991      0.024659      0.032732
O	      9.68357      8.33576     -3.98156         0.033324     -0.002464      0.071458
O	     11.66447     10.56796     -7.95290         0.047077     -0.005384      0.064379
O	     11.68810      4.08053     -1.82533         0.024208      0.034005      0.034068
O	     13.61007      6.08482     -6.02354         0.034679     -0.014403      0.069830
O	     15.57912      8.30760    -10.03337         0.054803     -0.000445      0.057505
O	      3.80227      2.35693     -4.15297        -0.031531     -0.001994      0.000887
O	      5.72260      4.52696     -8.20262        -0.045915      0.040608     -0.048097
O	      7.67871      6.71675    -12.20412        -0.065081      0.022964     -0.044384
O	      7.73013      0.06080     -6.16147        -0.024282      0.011444      0.007301
O	      9.64876      2.27675    -10.20316        -0.041557      0.039638     -0.043269
O	     11.59411      4.45106    -14.22669        -0.059786      0.019623     -0.050493
O	      5.68739      6.65924     -2.26459        -0.032199     -0.028087     -0.020006
O	      7.59537      8.87881     -6.21918        -0.045366      0.010346     -0.050936
O	      9.57407     11.12069    -10.21663        -0.032671      0.004115     -0.070755
O	      9.59778      4.43137     -4.26090        -0.041157     -0.015868     -0.029037
O	     11.52406      6.63283     -8.25717        -0.046149     -0.005194     -0.048521
O	     13.48100      8.82780    -12.28204        -0.027059      0.007346     -0.078433
O	      3.88665      2.44131     -0.08399         0.025455      0.022691      0.022346
O	      5.76249      4.48426     -4.01591         0.055085      0.024189     -0.022424
O	      7.69395      6.75310     -8.14534        -0.038755      0.029907     -0.008749
O	      7.81073      0.19101     -2.13739         0.032569      0.042026      0.016545
O	      9.69537      2.21177     -6.18765         0.014840      0.042289      0.005633
O	     11.61592      4.50112    -10.19108        -0.033303      0.040447      0.027286
O	      5.76535      6.85426      2.07042         0.044687      0.074157      0.002851
O	      7.65603      8.84811     -1.97824         0.057878      0.026191      0.008744
O	      9.60318     11.12517     -6.14731         0.042916      0.057884      0.038653
O	      9.68790      4.55306     -0.05477         0.030612      0.056384     -0.000512
O	     11.58714      6.62196     -4.02195         0.043932      0.033480      0.014905
O	     13.52587      8.87456     -8.17643         0.058784      0.052563      0.044271
O	      1.95979      1.97686     -2.10340        -0.000879     -0.014779     -0.022236
O	      3.87680      3.96809     -6.20892         0.005153     -0.040352     -0.049744
O	      5.87546      6.22455    -10.08627        -0.033683     -0.015989      0.004124
O	      5.86489     -0.31194     -4.13532        -0.000504     -0.010879     -0.036008
O	      7.76548      1.72660     -8.19289         0.017941     -0.030388      0.019180
O	      9.81790      3.97619    -12.09826        -0.040096     -0.037272      0.023117
O	      3.88628      6.27576     -0.08974        -0.001955     -0.075909     -0.057853
O	      5.79625      8.33172     -4.21096         0.025067     -0.080580     -0.046679
O	      7.71375     10.58406     -8.12239         0.038564     -0.035206     -0.069753
O	      7.80088      4.03000     -2.19085        -0.012979     -0.046967     -0.061255
O	      9.74521      6.05939     -6.23799         0.007419     -0.073001     -0.073630
O	     11.64178      8.33510    -10.18735         0.027187     -0.040709     -0.075447
O	      3.83601      4.52477     -1.93546        -0.003568      0.010004      0.028174
O	      5.65214      6.73932     -6.14504         0.031469      0.019979     -0.015684
O	      7.69942      9.00518    -10.02211        -0.025248      0.037086      0.026951
O	      7.65511      2.25056     -4.04296        -0.013101      0.017723     -0.009739
O	      9.57584      4.48781     -8.15646         0.061852      0.016616     -0.023669
O	     11.59738      6.71451    -12.06711        -0.008870      0.056929      0.044218
O	      5.73168      8.93345      0.10637         0.015931      0.058679      0.056873
O	      7.61491     11.09894     -4.04440        -0.030008      0.053165      0.060752
O	      9.57150     13.36355     -7.97488        -0.018171      0.082726      0.055993
O	      9.67348      6.61410     -1.92546         0.010216      0.040690      0.049027
O	     11.54274      8.86337     -6.04957        -0.033275      0.039643      0.097120
O	     13.45647     11.10799     -9.96334        -0.019774      0.066831      0.076905
