# total energy = -591.29795012 eV
 
CRYSTAL
PRIMVEC
4.282801 8.646389 4.201052 
8.671457 -4.373411 -4.217653 
4.348233 4.219231 -8.266023 
PRIMCOORD
91 1
Li	      4.45543      1.82760     -2.34952        -0.015798     -0.002778      0.018253
Li	      6.57858      3.90014     -6.22612         0.005233      0.023982     -0.006379
Li	      8.68335     -0.24860     -4.20906         0.015657      0.010934      0.014397
Li	     10.87485      1.67307     -8.36216        -0.001147      0.031200     -0.015621
Li	      6.43300      6.49092     -0.01791         0.009182     -0.008662     -0.004868
Li	      8.84272      8.77800     -4.06122        -0.025786     -0.011947     -0.018219
Li	     10.83398      4.23958     -2.06312        -0.005282     -0.002195     -0.002028
Li	     13.15301      6.36363     -6.29118        -0.021016     -0.010047     -0.010260
Li	      8.59870      8.47989      0.00144         0.006796      0.003578      0.009208
Li	      6.49367      2.12092     -8.28306        -0.000879      0.001065     -0.006613
Li	     12.91726      6.40128     -2.04280        -0.004798      0.002004     -0.006006
Li	     15.12820      8.51350     -6.21811        -0.005046      0.007429     -0.009304
Li	      6.42454      4.18149     -2.08268         0.012312     -0.012503      0.014735
Li	      8.67297      6.73568     -5.96528        -0.008699     -0.014253     -0.027622
Li	     10.86436      2.11581     -4.17842        -0.001861      0.033995      0.016577
Li	     13.01457      3.97092     -8.38030         0.000524      0.035537      0.005456
Li	      6.51278      2.13490     -4.12457         0.003253     -0.006469      0.011142
Li	      8.46767      3.91173     -8.25951         0.021423      0.004545      0.009451
Li	     10.88190     -0.07125     -6.25006         0.000396      0.007214      0.025801
Li	     12.82344      1.89255    -10.37744         0.023239      0.021922      0.015489
Li	      8.51356      6.60297     -1.98432         0.006869     -0.017016      0.015090
Li	     10.74745      8.88135     -6.15961        -0.000744     -0.023225      0.012041
Li	     12.84781      4.23881     -4.11852         0.017329      0.007943      0.004335
Li	     15.07814      6.71049     -8.25022        -0.007248     -0.013160      0.003829
Mn	      8.65141      4.18186     -4.11824        -0.010779     -0.021452      0.018952
Mn	      6.56405      2.21021     -0.01596        -0.043215     -0.053980      0.086677
Mn	     12.94953      2.06951     -6.26077         0.000748      0.003081      0.011194
Mn	     10.80336      0.00502     -2.12589        -0.003565     -0.042936      0.044115
Mn	     10.77772      8.55129     -2.01015        -0.009468     -0.021750      0.019731
Mn	      8.59986      6.47752      2.09070         0.010590     -0.021737     -0.012396
Mn	     10.82578     -2.24582     -8.33499         0.003099     -0.018922      0.010014
Mn	     12.99714     -0.14719    -12.44721        -0.009721      0.001988     -0.012204
Mn	      2.13594      2.09823     -0.02947         0.063003      0.016986      0.045074
Mn	      4.40110      4.19173     -4.12818         0.000529      0.045016      0.018225
Mn	      6.53353     -0.06856     -2.17970         0.012203      0.026832      0.059091
Mn	      8.74681      1.94757     -6.21721        -0.019835      0.036652      0.007187
Mn	      4.23334      6.57203      2.11064        -0.004789     -0.017509     -0.014601
Mn	      6.40680      8.62614     -1.94248        -0.008086     -0.000940     -0.055996
Mn	      8.56799      4.38269     -0.01982        -0.017097     -0.025503      0.001180
Mn	     10.77307      6.40532     -4.04044        -0.019839     -0.031687     -0.035671
Mn	      2.18653     -0.01196     -2.08602        -0.005876      0.013551     -0.024792
Mn	      8.63472     10.73163     -2.02707         0.016358      0.014927     -0.023775
Mn	      6.52742     -2.22837     -4.17611        -0.011815      0.008563     -0.005655
Mn	     12.93434      8.53784     -4.17373         0.010090      0.003515     -0.002157
Mn	      4.36208      4.40059      0.02501         0.015637     -0.058736      0.026130
Mn	      6.56615      6.29208     -4.09881        -0.007644      0.058005     -0.051917
Mn	      8.71621      2.11308     -2.05944        -0.017530     -0.002053      0.015752
Mn	     10.79292      4.16338     -6.25194         0.001539      0.056979     -0.057990
O	      4.38893     -0.21308     -2.01996        -0.048467      0.007571     -0.017626
O	      6.72846      1.87184     -6.23822        -0.005750      0.013422     -0.003290
O	      8.75170     -2.35366     -4.13979        -0.028418      0.004943     -0.010028
O	     11.03653     -0.29105     -8.34633        -0.000805     -0.025331     -0.001818
O	      6.31880      4.23257      0.12392        -0.054907      0.049687     -0.036868
O	      8.72307      6.21074     -4.16418         0.041977     -0.003714      0.030999
O	     10.94598      2.12305     -2.03553         0.029266      0.004051     -0.012212
O	     12.83155      4.07232     -6.47100         0.006107      0.000005      0.054074
O	      6.40916      1.96282     -2.00969        -0.005284      0.065192     -0.045776
O	      8.71750      3.97187     -6.14273        -0.029183     -0.016475     -0.009431
O	     11.07336     -0.29922     -4.19494         0.012935      0.050515     -0.035657
O	     13.03593      1.85038     -8.28562        -0.031637     -0.003410      0.019367
O	      8.51953      6.45539      0.14314        -0.021917      0.085971      0.015102
O	     10.71805      8.37624     -4.03308         0.006595      0.010364      0.019321
O	     12.89730      4.19033     -1.93826         0.002600      0.007362      0.006959
O	     15.05925      6.32540     -6.11392         0.010520      0.047387      0.029337
O	      4.41864      2.21373     -4.26606         0.009658     -0.025165      0.010964
O	      6.59994      4.29656     -8.33975        -0.004960     -0.041039     -0.011605
O	      8.76481     -0.02954     -6.38558         0.025277     -0.029817      0.020242
O	     10.89842      2.06899    -10.45179        -0.013863     -0.059665     -0.003177
O	      6.48309      6.62554     -2.07748         0.016789     -0.053114      0.017972
O	      8.60837      8.70155     -6.20112         0.007979      0.024458     -0.033047
O	     10.84443      4.49587     -4.17404         0.007340     -0.018036      0.026082
O	     12.99999      6.46786     -8.34137         0.033189     -0.057652     -0.028754
O	      6.39309      4.22709     -4.19589        -0.016374     -0.023720      0.000962
O	      8.76175      0.10885     -2.00818         0.016053      0.020579     -0.035136
O	     10.70667      2.04546     -6.30179         0.004458     -0.026900      0.001469
O	      6.23772      6.65536      2.11911         0.000609     -0.011511      0.014411
O	      8.56824      8.78599     -2.06054         0.025213     -0.027798     -0.017663
O	     10.73314      4.47659      0.01935         0.043059     -0.010029     -0.000115
O	     12.76386      6.56337     -4.20640         0.006371     -0.014948      0.007606
O	      2.29087      1.97173     -2.15894        -0.009126      0.020940     -0.044639
O	      4.42735      4.08205     -6.30066        -0.004195      0.010775     -0.015156
O	      6.59749     -0.22277     -4.26371        -0.013272     -0.006077     -0.049416
O	      8.71006      1.88118     -8.42564        -0.007104      0.012120      0.001155
O	      4.23353      6.54112     -0.08204         0.008312      0.005362     -0.019520
O	      8.58394      4.09829     -2.14658         0.001434      0.014918     -0.064090
O	      4.37860      4.45700     -1.93140         0.003342      0.011092     -0.005071
O	      8.73288      2.20288     -4.01768        -0.000141     -0.024017      0.027062
O	      6.35855      8.80209      0.15830        -0.001989     -0.005894      0.039259
O	      8.61447     10.83374     -3.96792         0.002737     -0.005227      0.011743
O	     10.73725      6.57325     -1.93265         0.001020     -0.005909     -0.014279
O	     12.85519      8.69071     -6.12440         0.006111     -0.009249      0.025236
