# total energy = -600.09665094 eV
 
CRYSTAL
PRIMVEC
4.268808 8.603203 4.210707 
8.648316 -4.349402 -4.236645 
4.335795 4.219260 -8.328256 
PRIMCOORD
92 1
Li	      4.39181      1.79599     -2.13711        -0.002687      0.026544     -0.005716
Li	      6.59076      4.06100     -6.55075        -0.019050     -0.040675      0.018109
Li	      8.69266     -0.40047     -4.22633        -0.003096     -0.005342     -0.010870
Li	     10.80347      1.86784     -8.39471         0.024160     -0.002262     -0.002102
Li	      6.41994      6.54992      0.09472        -0.004333      0.013519     -0.007511
Li	      8.59791      8.59081     -4.18150         0.000964      0.008714     -0.002387
Li	     10.93903      4.17512     -2.14813        -0.008039     -0.012924     -0.014532
Li	     12.98103      6.31253     -6.24459        -0.002605      0.007195      0.010177
Li	      8.54330      8.55525      0.02349         0.003322      0.008082     -0.004948
Li	     10.75289     10.57377     -4.20543        -0.007773     -0.006059      0.001848
Li	     12.91434      6.25769     -2.14014        -0.005921     -0.006527      0.004046
Li	     15.02648      8.46349     -6.26778         0.005342     -0.002614      0.000774
Li	      6.62098      4.59915     -1.87717        -0.004882      0.033420     -0.014089
Li	      8.58924      6.55388     -6.18295         0.000459      0.008853      0.008108
Li	     11.01699      2.16710     -4.21148        -0.009879      0.030497     -0.021054
Li	     13.00738      4.34234     -8.34282        -0.003393      0.035065      0.013070
Li	      6.28809      1.79611     -4.14213         0.012949      0.002627      0.005893
Li	      8.65516      4.25771     -8.36001         0.006576      0.000931      0.006276
Li	     10.57404     -0.19414     -6.27477         0.022179     -0.001729      0.028776
Li	     13.00872      2.05483    -10.46510         0.005543     -0.003276      0.014593
Li	      8.53786      6.71811     -2.06487         0.011579     -0.006543      0.007464
Li	     10.68426      8.61432     -6.11279        -0.007404     -0.014650     -0.002795
Li	     12.92588      4.29094     -4.19170        -0.012520      0.015766      0.006630
Li	     15.00023      6.32804     -8.37989         0.003939      0.015555     -0.006877
Mn	      8.70034      4.28955     -4.19112        -0.048949     -0.054081      0.063891
Mn	     10.76635      6.32000     -8.32631        -0.020465     -0.009090      0.021061
Mn	     12.90985      2.19124     -6.27157        -0.020353     -0.042792     -0.003083
Mn	     10.71024     -0.03146     -2.12532         0.016042      0.015463     -0.009109
Mn	     10.75221      8.53039     -2.06260        -0.007019     -0.015225     -0.004936
Mn	     12.89746     10.62161     -6.22290         0.013074     -0.008489      0.009736
Mn	     10.79477     -2.24651     -8.36560        -0.003839     -0.003750      0.001072
Mn	     12.90991      4.26455     -0.04074        -0.000846     -0.011381      0.033467
Mn	      2.21492      2.11206     -0.00926         0.001909     -0.008907      0.013093
Mn	      4.29065      4.18162     -4.30661         0.062571      0.020311      0.057436
Mn	      6.54276     -0.14666     -2.09942        -0.003371     -0.008967      0.020983
Mn	      8.66336      2.04161     -6.37466         0.019129      0.012011      0.052518
Mn	      4.26888      6.44274      2.12097        -0.027759      0.007432     -0.021834
Mn	      6.41630      8.63377     -2.06767         0.000459     -0.018457     -0.007815
Mn	      8.57635      4.26665      0.09384        -0.009229     -0.026703     -0.039061
Mn	     10.74066      6.42971     -4.17271        -0.003247     -0.026693     -0.010863
Mn	      2.19676     -0.01287     -2.10870         0.011607      0.011042     -0.008090
Mn	      8.63387     10.68192     -2.08682         0.008819      0.018937     -0.010362
Mn	     10.74276      6.39199     -0.04535         0.014357     -0.002749     -0.027784
Mn	      8.67476     -0.09699     -8.38446         0.006052     -0.000696     -0.000494
Mn	      4.35381      4.26535      0.11338         0.000107      0.012326     -0.063310
Mn	      6.51659      6.48575     -4.14670         0.002435     -0.031988      0.001786
Mn	      8.57879      2.06826     -2.13248        -0.014293      0.028283     -0.048181
Mn	     10.80052      4.24207     -6.27997         0.010528     -0.002335     -0.000506
O	      4.53875     -0.21339     -2.12857         0.007917     -0.004700      0.004576
O	      6.66670      1.91595     -6.19655        -0.009629      0.001458      0.001612
O	      8.82151     -2.37650     -4.26176         0.007531     -0.007415      0.001679
O	     10.89392     -0.23845     -8.31652        -0.020934      0.034087     -0.020277
O	      6.54410      4.09890     -0.07271         0.055564      0.001695      0.017612
O	      8.48016      6.29457     -4.08155         0.009550      0.065781     -0.012417
O	     10.58670      1.98183     -2.29163        -0.025695     -0.005548      0.011464
O	     13.08681      4.26264     -6.28788         0.008681      0.040867     -0.002636
O	      6.52033      1.89155     -2.03856         0.011862     -0.027816      0.003764
O	      8.52773      3.95174     -6.19372         0.017914     -0.011558     -0.049440
O	     10.76950     -0.26180     -4.14460        -0.043298     -0.016157      0.016291
O	     13.19624      1.77985     -8.30089        -0.013667      0.027415     -0.032465
O	      8.50016      6.23921      0.11224        -0.002037      0.016973     -0.004663
O	     10.68916      8.52653     -3.99967        -0.012770      0.045188     -0.002191
O	     12.85782      4.17474     -2.00169        -0.003927      0.093438      0.002890
O	     15.06555      6.27018     -6.12618        -0.007178      0.010421      0.019941
O	      4.45004      2.19412     -4.23573        -0.016678     -0.058371     -0.001619
O	      6.60483      4.36036     -8.47304         0.015649     -0.010960      0.003521
O	      8.69831      0.08400     -6.36254         0.021934     -0.007385      0.010078
O	     10.90620      2.09077    -10.59233         0.026651      0.012127      0.013172
O	      6.47777      6.54137     -2.15441         0.016998      0.035877     -0.035187
O	      8.63418      8.61840     -6.15674         0.020551     -0.073824      0.017051
O	     10.78033      4.27952     -4.28726         0.025693     -0.000066     -0.033552
O	     12.97043      6.56901     -8.37047         0.011457     -0.006937      0.010426
O	      4.20987      2.21584     -0.09887        -0.024845     -0.035990      0.019393
O	      8.49729     -0.05625     -2.15879        -0.024083     -0.017191      0.006386
O	     10.70748      2.22771     -6.27488        -0.056239      0.001841     -0.020239
O	      6.42579      6.65065      2.13251         0.028419     -0.025975     -0.003273
O	      8.42145      8.68752     -2.05452        -0.012163     -0.002114      0.002805
O	     10.57441      4.42205     -0.07436        -0.019616      0.004828      0.021234
O	     12.87799      6.57518     -4.14222         0.017627     -0.019220      0.005837
O	      2.24097      1.98674     -2.19293        -0.004033     -0.006905     -0.028595
O	      4.47595      4.08917     -6.38604        -0.010316      0.019694     -0.043013
O	      6.53438     -0.21954     -4.32153        -0.000938     -0.000703     -0.032854
O	      8.73440      1.89612     -8.48389        -0.006380     -0.009724      0.001774
O	      4.32235      6.31394     -0.01653         0.032948      0.030281      0.035881
O	      6.38507      8.62076     -4.26087         0.000416     -0.005773      0.005180
O	     10.70187      6.22070     -6.33136        -0.004596     -0.012729     -0.021441
O	      6.50055      6.52200     -6.10022        -0.011503      0.022125      0.000995
O	     10.81699      4.35288     -8.22789        -0.010668     -0.013113      0.012054
O	      6.43471      8.69427      0.14795         0.007948     -0.009063      0.007696
O	      8.55816     10.85162     -4.08723        -0.004375     -0.029427      0.021023
O	     10.66658      6.53021     -2.00621        -0.009637      0.022208      0.032355
O	     12.87851      8.62798     -6.13367        -0.003251     -0.025305     -0.015327
