# total energy = -567.16326469 eV
 
CRYSTAL
PRIMVEC
4.032520 8.170507 4.016300 
8.171140 -4.133862 -4.036109 
4.090337 4.012364 -7.948819 
PRIMCOORD
92 1
Li	      3.92320      1.61479     -1.92860        -0.845092      0.059041     -0.366456
Li	      5.92435      3.76883     -5.71352        -0.279336      0.478515     -0.715364
Li	      7.81548     -0.32727     -3.84507         0.245586     -0.459847      0.213017
Li	      9.77954      1.63864     -7.84849        -0.220972      0.064095     -0.137369
Li	      5.77821      5.83705     -0.00036         0.169612      0.130389     -0.021354
Li	      7.74372      7.67183     -3.77992         0.047964      1.198032      0.318948
Li	      9.81353      3.95234     -1.90053        -0.428781     -0.798591      0.601312
Li	     11.59381      5.74176     -5.70904        -0.000196      0.611695     -0.053849
Li	      3.85320      0.01124     -3.79670        -0.424526     -0.703328     -0.036618
Li	      9.58460      9.60063     -3.72490        -0.267778      0.593644     -0.228014
Li	     11.54895      5.69922     -1.89846         0.385758     -0.399251      1.062638
Li	     13.49694      7.57282     -5.67865         0.278492      0.644454      0.048617
Li	      5.88523      3.66004     -1.95986         0.317854      0.322909      0.140159
Li	      7.81133      5.80962     -5.65927        -0.145712      0.578986     -0.596294
Li	      9.86755      2.12277     -3.60231         0.258160     -1.118653     -0.802033
Li	     11.57310      3.61007     -7.62009         0.267797      0.580675     -0.361770
Li	      5.65870      1.84698     -3.77676         1.023562     -0.113628      0.348448
Li	      7.81974      3.83408     -7.54695        -0.054096     -0.212907     -1.399774
Li	      9.47698     -0.38484     -5.69017         1.504102     -0.584605      0.363837
Li	     11.63123      1.84456     -9.51153         0.094027      0.024568     -0.902409
Li	      7.65722      6.07929     -1.87787         0.748691     -0.398116      0.819949
Li	      9.60421      7.65722     -5.54545         0.441607      0.022321     -0.024454
Li	     11.58245      3.85558     -3.81256         0.593990     -0.025026      0.341419
Li	     13.47391      5.79476     -7.56943         1.319167      0.083545     -0.491235
Mn	      7.75485      3.85157     -3.82117         0.087993     -2.211774      3.254978
Mn	      5.80396      1.93706     -0.04232        -2.554500     -3.014288      4.938097
Mn	      3.92588      5.88194     -1.86551        -2.064108      0.487311      3.397537
Mn	      5.78289      7.62828     -5.64343        -1.321695      5.168561     -4.682635
Mn	      5.79374     -0.06384     -5.65064        -2.233671     -5.780614     -2.731408
Mn	     11.56578      9.60415     -5.62039         3.632666      4.888571     -1.446108
Mn	     13.50973      5.72208     -3.76857         1.532333      1.623769      1.496221
Mn	      3.87272      3.79011     -7.51613        -1.188629      1.018110     -6.173261
Mn	      1.99073      1.86451      0.00511        -5.482885     -0.536507      0.962653
Mn	      3.90790      3.83380     -3.87449        -3.212750      1.888180      2.461621
Mn	      5.86010     -0.07947     -1.92615        -3.042965     -4.610994      1.021251
Mn	      7.70611      1.85500     -5.74674         2.365960      0.019124      1.190016
Mn	      3.83107      5.80769      1.95627        -5.134871      0.804738      2.752695
Mn	      5.73019      7.80474     -1.88234        -1.388923      4.447218      1.291405
Mn	      7.67857      3.90065      0.07219         0.458048     -1.606815     -0.051604
Mn	      9.62914      5.81111     -3.76293         2.024397      1.768666      0.480134
Mn	      5.77840      7.73817      1.91004         0.943907      4.627900      4.414880
Mn	      3.89150      1.88866     -5.66394        -3.282412     -4.427954     -3.410303
Mn	      9.63967      5.78509     -0.01188         1.913360      3.360759      4.963130
Mn	      7.78608     -0.07477     -7.57647        -0.766094     -4.879241     -2.658129
Mn	      3.90987      3.86338      0.07165        -2.248179      0.038064      1.144143
Mn	      5.87449      5.79264     -3.76695        -0.703171     -0.037874     -0.618659
Mn	      7.81420      1.80838     -1.92410         2.215764      1.263250     -0.448017
Mn	      9.75572      3.93864     -5.71017         1.334655     -1.394819     -1.414159
O	      4.03571     -0.18624     -1.92653        -2.352210     -0.646382      0.112238
O	      5.85318      1.72005     -5.63579        -0.898903      3.083978     -0.553971
O	      7.91392     -2.17576     -3.84594        -0.048814     -2.440131     -0.259765
O	      9.75867     -0.26588     -7.51195         0.869163     -1.572574     -1.411935
O	      5.87533      3.74528     -0.19232        -1.244549      1.721550      0.562304
O	      7.86188      5.76451     -3.73653        -1.972709      0.731043     -0.046777
O	      9.71540      1.70545     -1.93209        -0.042887     -0.844257      1.308879
O	     11.66245      3.84580     -5.70851         0.617964     -1.374583     -0.263049
O	      5.85554      1.80093     -1.88104        -0.330348      1.047820     -2.773609
O	      7.85608      3.63102     -5.68753        -0.655853      2.036844     -2.053476
O	      9.67656     -0.27185     -3.74714         2.262496     -0.833531     -0.135532
O	     11.52044      1.74246     -7.47733         0.026650     -0.596017     -5.750389
O	      7.60105      5.66801      0.12947        -0.080270      2.091823      0.095821
O	      9.60506      7.61075     -3.60704         0.949432      3.544589      0.450077
O	     11.52182      3.67613     -1.77423         3.228925     -0.021363      0.276798
O	     13.45466      5.67274     -5.54844         1.578926      0.519547     -2.617967
O	      3.92452      1.93847     -3.86759        -1.122701     -1.416503      1.541876
O	      5.91303      3.89551     -7.66907         0.077827     -0.230478     -1.333125
O	      7.82670      0.03181     -5.76434        -0.475929     -1.351898      1.444502
O	      9.76268      1.91739     -9.61227         0.303688     -0.316887     -2.279344
O	      5.83444      5.96836     -1.98636         0.636607     -2.569068      2.498626
O	      7.78802      7.87238     -5.60676         0.486089      0.073860     -1.976130
O	      9.65303      3.95618     -3.78027         1.033479     -1.949949      0.038425
O	     11.67479      6.00466     -7.63518         2.200080     -0.589448     -0.655979
O	      3.77593      1.99839     -0.09894         2.255105     -1.132329      0.484285
O	      5.89051      3.99054     -3.67490        -0.619001     -2.592188     -0.633040
O	      7.64252     -0.05832     -1.98672         2.224975     -1.791542      1.427404
O	      5.65242      5.96591      1.94915         0.707007     -2.200080      0.742875
O	      7.56344      7.86847     -1.84871         2.251698      2.067269      1.407703
O	      9.47881      4.01381     -0.04050         1.571463     -3.265851      1.417625
O	     11.42479      5.90625     -3.73931         3.165375      0.077613      0.758963
O	      1.97506      1.76753     -1.98496        -1.479273     -1.299330     -0.208667
O	      3.91485      3.70929     -5.75764        -0.563028      2.093600      1.216993
O	      5.85703     -0.18560     -3.89412        -0.469486     -0.580690      0.964096
O	      7.89739      1.71862     -7.66158        -0.663101      2.314760     -0.590760
O	      3.77967      5.72736     -0.09459        -0.576418      1.400829      2.371520
O	      5.75369      7.56908     -3.87822        -1.187173      3.078560      2.078995
O	      9.64908      5.83113     -5.80972        -0.164893      1.129173     -0.055054
O	      5.84610      5.83779     -5.54374        -0.320375     -2.760669     -2.737373
O	      9.73701      3.98440     -7.55767         0.331044      0.260960     -1.567214
O	      5.70813      7.85036      0.14226        -0.409405      0.699763     -1.202705
O	      7.65020      9.78094     -3.61346         0.659463      2.230246      1.008820
O	      9.59494      5.87978     -1.76321         0.515329      0.682507     -1.777991
O	     11.54684      7.82344     -5.54075         0.810432     -1.992844      0.419196
