# total energy = -573.56311115 eV
 
CRYSTAL
PRIMVEC
4.053744 8.213510 4.037438 
8.214146 -4.155619 -4.057352 
4.111865 4.033482 -7.990655 
PRIMCOORD
92 1
Li	      3.96460      1.63183     -1.94896        -0.750040      0.027722     -0.318784
Li	      5.98687      3.80862     -5.77382        -0.243911      0.436407     -0.637460
Li	      7.89797     -0.33073     -3.88565         0.220223     -0.416963      0.206888
Li	      9.88276      1.65593     -7.93133        -0.185938      0.034986     -0.132100
Li	      5.83919      5.89866     -0.00036         0.171193      0.111485     -0.026435
Li	      7.82545      7.75280     -3.81980         0.037934      1.043107      0.282354
Li	      9.91710      3.99406     -1.92059        -0.397941     -0.715162      0.552539
Li	     11.71617      5.80236     -5.76930        -0.000089      0.541963     -0.054990
Li	      3.89386      0.01135     -3.83678        -0.347880     -0.623657     -0.013919
Li	      9.68576      9.70195     -3.76421        -0.222842      0.531628     -0.191189
Li	     11.67083      5.75937     -1.91850         0.321751     -0.363819      0.935603
Li	     13.63939      7.65275     -5.73858         0.231016      0.564322      0.050710
Li	      5.94735      3.69867     -1.98055         0.326774      0.275368      0.119431
Li	      7.89377      5.87093     -5.71900        -0.107650      0.519982     -0.503029
Li	      9.97169      2.14519     -3.64033         0.205831     -0.991149     -0.714065
Li	     11.69524      3.64817     -7.70052         0.242490      0.525062     -0.329153
Li	      5.71842      1.86647     -3.81662         0.889493     -0.103781      0.310689
Li	      7.90226      3.87454     -7.62660        -0.043892     -0.191789     -1.242540
Li	      9.57699     -0.38889     -5.75022         1.320273     -0.482477      0.303341
Li	     11.75398      1.86403     -9.61191         0.076402      0.041874     -0.831945
Li	      7.73804      6.14345     -1.89769         0.667770     -0.372952      0.728223
Li	      9.70557      7.73804     -5.60398         0.401041     -0.018411     -0.003233
Li	     11.70469      3.89627     -3.85279         0.511532     -0.002240      0.280421
Li	     13.61611      5.85592     -7.64931         1.158690      0.092220     -0.462900
Mn	      7.83670      3.89222     -3.86150         0.076686     -1.945322      2.892698
Mn	      5.86521      1.95751     -0.04277        -2.142565     -2.558146      4.312635
Mn	      3.96732      5.94402     -1.88521        -1.988722      0.445426      3.000718
Mn	      5.84393      7.70880     -5.70299        -1.155757      4.570622     -4.048701
Mn	      5.85489     -0.06451     -5.71028        -1.962686     -5.063695     -2.313182
Mn	     11.68784      9.70552     -5.67970         3.258716      4.472596     -1.407485
Mn	     13.65231      5.78246     -3.80835         1.385949      1.601547      1.146363
Mn	      3.91360      3.83012     -7.59546        -1.069553      0.891323     -5.457488
Mn	      2.01174      1.88419      0.00517        -4.849919     -0.408125      0.849172
Mn	      3.94915      3.87426     -3.91538        -2.832029      1.594372      2.149353
Mn	      5.92195     -0.08031     -1.94647        -2.673501     -4.031661      0.858160
Mn	      7.78745      1.87458     -5.80739         2.146565      0.039584      1.002343
Mn	      3.87149      5.86898      1.97692        -4.573943      0.780802      2.481807
Mn	      5.79067      7.88711     -1.90220        -1.196552      3.832147      1.149445
Mn	      7.75961      3.94182      0.07295         0.383971     -1.338854     -0.183586
Mn	      9.73076      5.87244     -3.80265         1.746960      1.510143      0.399027
Mn	      5.83939      7.81984      1.93020         0.837372      4.090660      3.935645
Mn	      3.93257      1.90860     -5.72372        -2.880843     -3.941238     -2.916771
Mn	      9.74140      5.84615     -0.01201         1.646604      2.911716      4.397896
Mn	      7.86825     -0.07556     -7.65643        -0.675981     -4.349546     -2.317719
Mn	      3.95113      3.90415      0.07241        -1.978180      0.052703      1.016243
Mn	      5.93649      5.85377     -3.80671        -0.551216     -0.013408     -0.555268
Mn	      7.89667      1.82747     -1.94441         1.947246      1.199306     -0.360668
Mn	      9.85868      3.98020     -5.77044         1.133607     -1.239380     -1.209005
O	      4.07831     -0.18821     -1.94687        -2.084315     -0.612770      0.101511
O	      5.91495      1.73820     -5.69526        -0.865551      2.561632     -0.499729
O	      7.99745     -2.19872     -3.88653         0.032649     -2.277857     -0.199746
O	      9.86167     -0.26869     -7.59123         0.731614     -1.468422     -1.279920
O	      5.93734      3.78481     -0.19435        -1.109513      1.346891      0.527455
O	      7.94485      5.82536     -3.77596        -1.676875      0.643434     -0.060943
O	      9.81793      1.72344     -1.95247         0.088608     -0.846727      1.129093
O	     11.78553      3.88639     -5.76876         0.497029     -1.226084     -0.263617
O	      5.91733      1.81994     -1.90088        -0.330441      0.827374     -2.263343
O	      7.93900      3.66934     -5.74755        -0.501255      1.748259     -1.867819
O	      9.77868     -0.27472     -3.78668         2.043052     -0.837921     -0.117033
O	     11.64202      1.76085     -7.55624         0.188187     -0.585455     -5.000201
O	      7.68126      5.72782      0.13084        -0.087226      1.722302      0.112530
O	      9.70644      7.69107     -3.64511         0.839849      3.178140      0.403749
O	     11.64343      3.71493     -1.79295         2.931809     -0.029984      0.292499
O	     13.59667      5.73262     -5.60700         1.457132      0.448188     -2.247338
O	      3.96594      1.95892     -3.90841        -0.989416     -1.207040      1.247980
O	      5.97544      3.93663     -7.75000         0.057796     -0.249828     -1.303983
O	      7.90930      0.03214     -5.82518        -0.483115     -1.150219      1.146257
O	      9.86571      1.93763     -9.71371         0.300028     -0.274600     -2.110324
O	      5.89602      6.03135     -2.00733         0.524401     -2.099368      2.142960
O	      7.87022      7.95547     -5.66593         0.455140      0.076316     -1.796118
O	      9.75491      3.99793     -3.82017         0.963490     -1.644022     -0.066746
O	     11.79799      6.06803     -7.71576         1.953276     -0.582945     -0.606714
O	      3.81578      2.01948     -0.09998         1.790669     -0.960772      0.444411
O	      5.95268      4.03266     -3.71369        -0.621710     -2.189978     -0.576471
O	      7.72319     -0.05893     -2.00769         1.815652     -1.643281      1.269738
O	      5.71207      6.02887      1.96972         0.558662     -1.852855      0.717252
O	      7.64327      7.95152     -1.86822         1.921312      1.902539      1.229312
O	      9.57884      4.05618     -0.04093         1.314637     -2.781976      1.286531
O	     11.54536      5.96858     -3.77877         2.777360      0.089986      0.709958
O	      1.99589      1.78619     -2.00590        -1.326432     -1.269753     -0.106930
O	      3.95616      3.74844     -5.81840        -0.494244      1.789480      0.969636
O	      5.91884     -0.18756     -3.93522        -0.423961     -0.534490      0.716677
O	      7.98073      1.73676     -7.74243        -0.629990      1.946433     -0.450699
O	      3.81956      5.78780     -0.09558        -0.493296      1.207050      2.091044
O	      5.81441      7.64896     -3.91916        -1.032713      2.637055      1.802284
O	      9.75093      5.89267     -5.87103        -0.149554      1.026667     -0.105952
O	      5.90779      5.89941     -5.60225        -0.255187     -2.347232     -2.327665
O	      9.83978      4.02645     -7.63743         0.317030      0.293028     -1.355232
O	      5.76838      7.93322      0.14376        -0.379363      0.584716     -0.893534
O	      7.73094      9.88416     -3.65159         0.638513      2.081383      0.935714
O	      9.69621      5.94184     -1.78182         0.490475      0.679314     -1.378306
O	     11.66870      7.90601     -5.59922         0.731327     -1.683908      0.471682
