# total energy = -584.22688205 eV
 
CRYSTAL
PRIMVEC
4.096192 8.299515 4.079715 
8.300158 -4.199134 -4.099837 
4.154921 4.075717 -8.074327 
PRIMCOORD
92 1
Li	      4.04806      1.66619     -1.98999        -0.597641     -0.035813     -0.221207
Li	      6.11291      3.88879     -5.89537        -0.192824      0.335641     -0.513774
Li	      8.06423     -0.33770     -3.96745         0.150884     -0.457063      0.198337
Li	     10.09080      1.69079     -8.09830        -0.083330      0.012238     -0.127185
Li	      5.96212      6.02284     -0.00037         0.072668      0.126377     -0.071446
Li	      7.99019      7.91602     -3.90022         0.013654      0.764645      0.253791
Li	     10.12587      4.07814     -1.96102        -0.076530     -0.529013      0.379539
Li	     11.96283      5.92450     -5.89076         0.012354      0.323319     -0.025969
Li	      3.97584      0.01159     -3.91755        -0.238657     -0.437682     -0.043200
Li	      9.88966      9.90620     -3.84346        -0.151951      0.414728     -0.100592
Li	     11.91653      5.88061     -1.95889         0.237015     -0.270945      0.695927
Li	     13.92653      7.81385     -5.85939         0.198141      0.381054      0.095842
Li	      6.07254      3.77654     -2.02223        -0.007670      0.184463      0.012248
Li	      8.05995      5.99453     -5.83940        -0.043651      0.392787     -0.363657
Li	     10.18161      2.19034     -3.71696         0.325239     -0.729643     -0.430880
Li	     11.94146      3.72497     -7.86263         0.178977      0.366858     -0.209604
Li	      5.83881      1.90577     -3.89697         0.565133     -0.096775      0.205622
Li	      8.06863      3.95612     -7.78715        -0.006661     -0.134087     -0.934099
Li	      9.77861     -0.39709     -5.87127         0.966320     -0.383072      0.159839
Li	     12.00142      1.90327     -9.81426         0.053641      0.062704     -0.651830
Li	      7.90094      6.27278     -1.93764         0.467355     -0.033889      0.493444
Li	      9.90990      7.90093     -5.72196         0.287179     -0.088655      0.038989
Li	     11.95110      3.97830     -3.93391         0.384325      0.007895      0.116036
Li	     13.90275      5.97920     -7.81034         0.903287      0.034039     -0.346067
Mn	      8.00168      3.97415     -3.94280        -0.071736     -1.193238      1.786926
Mn	      5.98868      1.99872     -0.04366        -1.662080     -2.196371      3.288566
Mn	      4.05083      6.06916     -1.92489        -1.723905      0.288887      2.149523
Mn	      5.96696      7.87109     -5.82306        -0.866327      3.388297     -2.801814
Mn	      5.97815     -0.06587     -5.83049        -1.560768     -3.788918     -1.639563
Mn	     11.93390      9.90984     -5.79927         2.518078      3.729004     -1.196322
Mn	     13.93972      5.90419     -3.88852         1.129293      1.456397      0.520963
Mn	      3.99599      3.91075     -7.75535        -0.747687      0.623355     -4.088201
Mn	      2.05409      1.92386      0.00527        -3.618578     -0.262580      0.628128
Mn	      4.03229      3.95582     -3.99781        -2.204449      1.113081      1.500913
Mn	      6.04661     -0.08200     -1.98745        -1.975717     -3.050356      0.650685
Mn	      7.95138      1.91404     -5.92965         1.455807     -0.210053      0.614550
Mn	      3.95300      5.99254      2.01853        -3.436129      0.721624      1.980075
Mn	      5.91257      8.05315     -1.94225        -1.087536      2.811920      0.859843
Mn	      7.92296      4.02480      0.07448         0.193006     -0.875614      0.519448
Mn	      9.93562      5.99607     -3.88270         1.265576      1.145828      0.227932
Mn	      5.96231      7.98446      1.97084         0.626030      3.221712      3.065616
Mn	      4.01536      1.94878     -5.84422        -2.178324     -3.123988     -2.061083
Mn	      9.94648      5.96922     -0.01225         1.318926      2.352741      3.423942
Mn	      8.03389     -0.07715     -7.81761        -0.471890     -3.290480     -1.544610
Mn	      4.03431      3.98634      0.07393        -1.463376      0.005026      0.769160
Mn	      6.06147      5.97701     -3.88684        -0.350548      0.144523     -0.370477
Mn	      8.06291      1.86594     -1.98534         1.455109      0.577299     -0.109857
Mn	     10.06623      4.06400     -5.89192         1.048249     -0.812614     -0.902946
O	      4.16417     -0.19217     -1.98785        -1.602806     -0.666160      0.071301
O	      6.03947      1.77479     -5.81516        -0.697743      1.824773     -0.373803
O	      8.16581     -2.24502     -3.96835         0.129999     -1.892893     -0.132829
O	     10.06928     -0.27435     -7.75104         0.480865     -1.219851     -0.994139
O	      6.06233      3.86448     -0.19844        -0.545493      1.039938      0.183379
O	      8.11210      5.94799     -3.85546        -1.140621      0.565965     -0.008665
O	     10.02462      1.75973     -1.99358         0.430571     -0.651931      0.775541
O	     12.03364      3.96820     -5.89021         0.276157     -0.815494     -0.252950
O	      6.04191      1.85825     -1.94090        -0.331774      0.670750     -1.348846
O	      8.10613      3.74659     -5.86855        -0.213351      1.534342     -1.131706
O	      9.98455     -0.28050     -3.86640         1.464080     -0.607676     -0.177076
O	     11.88711      1.79792     -7.71532         0.310974     -0.543126     -3.776541
O	      7.84297      5.84841      0.13359        -0.117854      0.992051      0.120221
O	      9.91078      7.85299     -3.72185         0.661003      2.416062      0.257697
O	     11.88854      3.79313     -1.83070         2.280372     -0.135148      0.262525
O	     13.88290      5.85330     -5.72504         1.136441      0.545644     -1.521659
O	      4.04943      2.00016     -3.99069        -0.726614     -0.840451      0.811517
O	      6.10124      4.01950     -7.91316         0.030979     -0.251117     -1.193261
O	      8.07582      0.03282     -5.94781        -0.312838     -1.079014      0.671646
O	     10.07341      1.97842     -9.91821         0.227443     -0.286277     -1.869958
O	      6.02015      6.15833     -2.04959         0.545617     -1.717227      1.470173
O	      8.03590      8.12294     -5.78521         0.406899      0.235254     -1.379403
O	      9.96027      4.08209     -3.90059         0.760248     -1.318626      0.049827
O	     12.04637      6.19577     -7.87819         1.649371     -0.298712     -0.608196
O	      3.89611      2.06199     -0.10209         0.941897     -0.760391      0.333283
O	      6.07800      4.11755     -3.79188        -0.557536     -1.535724     -0.277833
O	      7.88578     -0.06018     -2.04996         1.141336     -1.343549      0.924484
O	      5.83232      6.15579      2.01120         0.198854     -1.501634      0.623362
O	      7.80417      8.11892     -1.90754         1.747132      1.593256      0.937002
O	      9.78050      4.14157     -0.04180         0.723501     -2.064217      0.844929
O	     11.78841      6.09423     -3.85832         2.037660      0.163352      0.608601
O	      2.03791      1.82379     -2.04813        -1.029877     -1.117842      0.031257
O	      4.03944      3.82735     -5.94089        -0.389026      1.279752      0.609022
O	      6.04344     -0.19151     -4.01807        -0.298314     -0.453921      0.376453
O	      8.14875      1.77332     -7.90543        -0.583851      1.175452     -0.437901
O	      3.89997      5.90965     -0.09760        -0.504707      0.985152      1.828339
O	      5.93682      7.80999     -4.00167        -0.746891      1.858378      1.250939
O	      9.95620      6.01672     -5.99463        -0.090663      1.003964     -0.274219
O	      6.03217      6.02360     -5.72019        -0.132995     -1.642346     -1.632155
O	     10.04692      4.11121     -7.79822         0.275113      0.305583     -1.296992
O	      5.88981      8.10023      0.14678        -0.302019      0.374984     -0.467658
O	      7.89369     10.09225     -3.72847         0.552829      1.746982      0.737884
O	      9.90034      6.06692     -1.81933         0.360280      0.414142     -0.763029
O	     11.91435      8.07245     -5.71710         0.547070     -0.968037      0.257944
