# total energy = -588.51621530 eV
 
CRYSTAL
PRIMVEC
4.117415 8.342518 4.100854 
8.343164 -4.220891 -4.121080 
4.176450 4.096835 -8.116163 
PRIMCOORD
92 1
Li	      4.09012      1.68350     -2.01066        -0.509073     -0.037508     -0.178728
Li	      6.17643      3.92920     -5.95663        -0.159890      0.290525     -0.433915
Li	      8.14802     -0.34121     -4.00867         0.126275     -0.400952      0.182149
Li	     10.19564      1.70836     -8.18243        -0.038181      0.007188     -0.105961
Li	      6.02406      6.08542     -0.00037         0.046161      0.106501     -0.080085
Li	      8.07320      7.99826     -3.94074         0.004611      0.638581      0.230099
Li	     10.23108      4.12051     -1.98140        -0.051417     -0.447066      0.319250
Li	     12.08711      5.98606     -5.95195         0.015705      0.241734     -0.024992
Li	      4.01714      0.01171     -3.95824        -0.191811     -0.361835     -0.045484
Li	      9.99241     10.00912     -3.88339        -0.126051      0.353337     -0.071200
Li	     12.04034      5.94171     -1.97924         0.197696     -0.232518      0.575975
Li	     14.07122      7.89503     -5.92027         0.173571      0.308911      0.094237
Li	      6.13563      3.81577     -2.04324        -0.010114      0.153253      0.007788
Li	      8.14368      6.05681     -5.90006        -0.022709      0.327294     -0.299812
Li	     10.28740      2.21309     -3.75559         0.288233     -0.607753     -0.363396
Li	     12.06551      3.76367     -7.94432         0.148450      0.311454     -0.165010
Li	      5.89946      1.92557     -3.93745         0.464698     -0.085710      0.171006
Li	      8.15246      3.99722     -7.86805         0.013803     -0.098622     -0.777793
Li	      9.88021     -0.40121     -5.93227         0.807730     -0.309548      0.121770
Li	     12.12611      1.92304     -9.91623         0.049017      0.065678     -0.561724
Li	      7.98302      6.33796     -1.95777         0.388662     -0.001950      0.396177
Li	     10.01286      7.98302     -5.78141         0.236648     -0.105327      0.035002
Li	     12.07526      4.01963     -3.97478         0.322619      0.008219      0.060548
Li	     14.04720      6.04133     -7.89149         0.762718      0.027025     -0.304451
Mn	      8.08481      4.01544     -3.98376        -0.052411     -0.972734      1.465301
Mn	      6.05090      2.01948     -0.04412        -1.331110     -1.906699      2.800895
Mn	      4.09292      6.13221     -1.94489        -1.532346      0.234651      1.743466
Mn	      6.02895      7.95286     -5.88356        -0.721939      2.849601     -2.283666
Mn	      6.04026     -0.06656     -5.89107        -1.340035     -3.177603     -1.337646
Mn	     12.05789     10.01280     -5.85952         2.195805      3.290542     -1.077349
Mn	     14.08454      5.96554     -3.92892         1.004023      1.342127      0.312746
Mn	      4.03750      3.95138     -7.83593        -0.620434      0.498864     -3.456545
Mn	      2.07543      1.94385      0.00533        -3.050188     -0.186982      0.540925
Mn	      4.07418      3.99692     -4.03934        -1.865468      0.896738      1.252880
Mn	      6.10944     -0.08285     -2.00810        -1.632595     -2.542513      0.555341
Mn	      8.03400      1.93394     -5.99126         1.194901     -0.134697      0.511023
Mn	      3.99407      6.05480      2.03951        -2.937411      0.640896      1.701470
Mn	      5.97401      8.13683     -1.96243        -0.972734      2.322374      0.726168
Mn	      8.00528      4.06661      0.07526         0.105174     -0.745405      0.412715
Mn	     10.03884      6.05837     -3.92304         1.035907      0.922366      0.165805
Mn	      6.02426      8.06742      1.99131         0.511897      2.769480      2.644923
Mn	      4.05708      1.96902     -5.90494        -1.851794     -2.698647     -1.674851
Mn	     10.04982      6.03124     -0.01239         1.114356      1.979901      2.957985
Mn	      8.11737     -0.07795     -7.89883        -0.390181     -2.848094     -1.250619
Mn	      4.07623      4.02776      0.07470        -1.211292      0.014037      0.638749
Mn	      6.12444      6.03911     -3.92722        -0.272644      0.156272     -0.289471
Mn	      8.14668      1.88532     -2.00597         1.222178      0.471939     -0.091952
Mn	     10.17082      4.10622     -5.95313         0.913438     -0.695908     -0.714909
O	      4.20743     -0.19416     -2.00851        -1.379176     -0.708628      0.067089
O	      6.10222      1.79324     -5.87557        -0.590199      1.467018     -0.320250
O	      8.25065     -2.26834     -4.00958         0.149183     -1.683501     -0.096172
O	     10.17390     -0.27720     -7.83157         0.378814     -1.076364     -0.856104
O	      6.12532      3.90464     -0.20051        -0.421013      0.889616      0.165139
O	      8.19639      6.00979     -3.89552        -0.907170      0.458283     -0.015262
O	     10.12877      1.77801     -2.01429         0.439182     -0.598813      0.646902
O	     12.15867      4.00943     -5.95141         0.282221     -0.671123     -0.235429
O	      6.10468      1.87755     -1.96107        -0.280830      0.520115     -1.016534
O	      8.19035      3.78550     -5.92953        -0.236759      1.218486     -0.935667
O	     10.08828     -0.28342     -3.90657         1.235512     -0.568151     -0.166064
O	     12.01061      1.81660     -7.79547         0.350468     -0.501519     -3.116563
O	      7.92445      5.90917      0.13498        -0.095820      0.765987      0.250236
O	     10.01375      7.93458     -3.76052         0.564002      2.044521      0.193087
O	     12.01206      3.83254     -1.84972         1.964351     -0.145754      0.265961
O	     14.02714      5.91411     -5.78452         0.994520      0.533946     -1.210074
O	      4.09149      2.02094     -4.03215        -0.616219     -0.680498      0.618706
O	      6.16463      4.06126     -7.99538         0.008723     -0.242818     -1.120415
O	      8.15972      0.03316     -6.00961        -0.269804     -0.874850      0.478464
O	     10.17806      1.99897    -10.02125         0.178972     -0.275530     -1.700054
O	      6.08269      6.22230     -2.07088         0.450286     -1.434537      1.187543
O	      8.11939      8.20734     -5.84531         0.361752      0.243297     -1.181378
O	     10.06375      4.12451     -3.94112         0.600053     -1.063387      0.107784
O	     12.17153      6.26015     -7.96005         1.362652     -0.236012     -0.554216
O	      3.93659      2.08342     -0.10315         0.670544     -0.623012      0.279980
O	      6.14114      4.16033     -3.83127        -0.461635     -1.250865     -0.233473
O	      7.96770     -0.06080     -2.07125         0.874463     -1.127882      0.772297
O	      5.89292      6.21975      2.03209         0.168636     -1.248239      0.566533
O	      7.88525      8.20327     -1.92736         1.523958      1.418817      0.784797
O	      9.88212      4.18459     -0.04223         0.558888     -1.645131      0.725608
O	     11.91089      6.15755     -3.89841         1.690571      0.192420      0.538775
O	      2.05909      1.84274     -2.06941        -0.888752     -1.020259      0.060861
O	      4.08142      3.86712     -6.00262        -0.333932      1.035097      0.437320
O	      6.10623     -0.19350     -4.05981        -0.256598     -0.444673      0.246950
O	      8.23341      1.79174     -7.98757        -0.547467      0.912829     -0.462099
O	      3.94049      5.97105     -0.09861        -0.448735      0.827878      1.596477
O	      5.99850      7.89113     -4.04324        -0.616904      1.513352      1.014626
O	     10.05964      6.07924     -6.05691        -0.065805      0.919984     -0.314964
O	      6.09484      6.08619     -5.77962        -0.088186     -1.327733     -1.324145
O	     10.15130      4.15392     -7.87924         0.242186      0.267143     -1.221225
O	      5.95100      8.18439      0.14831        -0.271644      0.293036     -0.293177
O	      7.97570     10.19710     -3.76720         0.498469      1.560369      0.633768
O	     10.00320      6.12996     -1.83823         0.321715      0.385982     -0.539952
O	     12.03813      8.15632     -5.77649         0.454079     -0.650311      0.239483
