# total energy = -592.11275359 eV
 
CRYSTAL
PRIMVEC
4.138639 8.385521 4.121992 
8.386170 -4.242648 -4.142322 
4.197978 4.117953 -8.157999 
PRIMCOORD
92 1
Li	      4.13240      1.70090     -2.03145        -0.420702     -0.038232     -0.139492
Li	      6.24026      3.96981     -6.01819        -0.123961      0.241558     -0.358424
Li	      8.23224     -0.34473     -4.05010         0.103117     -0.336824      0.163157
Li	     10.30103      1.72602     -8.26701        -0.004123      0.002159     -0.088919
Li	      6.08633      6.14831     -0.00037         0.032330      0.086507     -0.083814
Li	      8.15665      8.08093     -3.98148        -0.001953      0.518499      0.194403
Li	     10.33682      4.16310     -2.00187        -0.030806     -0.364852      0.257788
Li	     12.21204      6.04793     -6.01347         0.017236      0.169026     -0.020467
Li	      4.05867      0.01183     -3.99916        -0.148348     -0.292460     -0.044360
Li	     10.09569     10.11258     -3.92352        -0.100086      0.293567     -0.052484
Li	     12.16478      6.00313     -1.99970         0.156826     -0.192403      0.468808
Li	     14.21665      7.97664     -5.98146         0.147469      0.245129      0.084624
Li	      6.19905      3.85521     -2.06436        -0.004398      0.126529      0.001278
Li	      8.22785      6.11942     -5.96104        -0.006558      0.264082     -0.236513
Li	     10.39373      2.23597     -3.79439         0.253539     -0.491501     -0.299097
Li	     12.19022      3.80257     -8.02643         0.115967      0.259006     -0.126044
Li	      5.96044      1.94547     -3.97815         0.367228     -0.074111      0.139781
Li	      8.23672      4.03854     -7.94938         0.027150     -0.069500     -0.623542
Li	      9.98232     -0.40536     -5.99359         0.656461     -0.245995      0.084040
Li	     12.25145      1.94292    -10.01872         0.048437      0.062367     -0.474077
Li	      8.06553      6.40346     -1.97800         0.306866      0.016508      0.307806
Li	     10.11635      8.06554     -5.84116         0.188425     -0.111856      0.036399
Li	     12.20008      4.06118     -4.01586         0.259977      0.010550      0.020172
Li	     14.19239      6.10377     -7.97305         0.634192      0.015843     -0.261450
Mn	      8.16838      4.05694     -4.02494        -0.034130     -0.776903      1.173837
Mn	      6.11345      2.04035     -0.04457        -1.021025     -1.599869      2.329896
Mn	      4.13523      6.19560     -1.96499        -1.313356      0.179408      1.357527
Mn	      6.09126      8.03505     -5.94436        -0.582249      2.333385     -1.807814
Mn	      6.10269     -0.06724     -5.95196        -1.107203     -2.593755     -1.061115
Mn	     12.18251     10.11628     -5.92008         1.857874      2.823168     -0.932484
Mn	     14.23012      6.02720     -3.96953         0.872707      1.199390      0.158992
Mn	      4.07924      3.99222     -7.91692        -0.500843      0.381675     -2.842298
Mn	      2.09688      1.96394      0.00539        -2.506932     -0.123328      0.459743
Mn	      4.11629      4.03823     -4.08109        -1.531633      0.701272      1.022370
Mn	      6.17258     -0.08371     -2.02885        -1.308134     -2.054593      0.461090
Mn	      8.11704      1.95392     -6.05318         0.965696     -0.078649      0.428530
Mn	      4.03535      6.11738      2.06059        -2.447378      0.548844      1.418797
Mn	      6.03575      8.22093     -1.98271        -0.831723      1.857740      0.590800
Mn	      8.08803      4.10865      0.07603         0.034062     -0.620353      0.309410
Mn	     10.14260      6.12098     -3.96359         0.817630      0.712527      0.114873
Mn	      6.08652      8.15080      2.01190         0.400429      2.315758      2.233588
Mn	      4.09901      1.98937     -5.96597        -1.531215     -2.262302     -1.319503
Mn	     10.15369      6.09358     -0.01252         0.916483      1.627421      2.501165
Mn	      8.20126     -0.07876     -7.98047        -0.313386     -2.390659     -0.979042
Mn	      4.11836      4.06940      0.07547        -0.976558      0.014990      0.514213
Mn	      6.18774      6.10153     -3.96782        -0.204555      0.149956     -0.222665
Mn	      8.23089      1.90482     -2.02670         0.995432      0.381237     -0.075528
Mn	     10.27594      4.14866     -6.01466         0.769216     -0.578965     -0.550542
O	      4.25092     -0.19617     -2.02926        -1.162844     -0.741654      0.063299
O	      6.16529      1.81176     -5.93630        -0.498976      1.141256     -0.270267
O	      8.33592     -2.29178     -4.05102         0.161198     -1.457277     -0.070954
O	     10.27905     -0.28007     -7.91252         0.287950     -0.931017     -0.714006
O	      6.18862      3.94500     -0.20258        -0.313316      0.740203      0.147904
O	      8.28111      6.07190     -3.93578        -0.702274      0.368275     -0.016116
O	     10.23346      1.79639     -2.03511         0.430377     -0.532933      0.528115
O	     12.28433      4.05088     -6.01292         0.294216     -0.529779     -0.211482
O	      6.16778      1.89697     -1.98134        -0.232445      0.388894     -0.752932
O	      8.27500      3.82464     -5.99081        -0.250540      0.955161     -0.750786
O	     10.19256     -0.28635     -3.94695         1.010652     -0.510670     -0.148462
O	     12.13475      1.83537     -7.87605         0.356191     -0.440115     -2.488268
O	      8.00636      5.97025      0.13637        -0.071122      0.572201      0.338229
O	     10.11725      8.01659     -3.79939         0.459997      1.687097      0.141404
O	     12.13622      3.87215     -1.86884         1.642835     -0.144003      0.259313
O	     14.17212      5.97524     -5.84431         0.857508      0.499853     -0.936138
O	      4.13379      2.04183     -4.07383        -0.511213     -0.546958      0.446813
O	      6.22834      4.10324     -8.07801        -0.005122     -0.227841     -1.038191
O	      8.24406      0.03350     -6.07172        -0.232698     -0.701568      0.324523
O	     10.28326      2.01963    -10.12483         0.130816     -0.257192     -1.516467
O	      6.14557      6.28662     -2.09229         0.360335     -1.155999      0.929997
O	      8.20332      8.29216     -5.90573         0.319202      0.240824     -0.978595
O	     10.16777      4.16714     -3.98186         0.461145     -0.831159      0.151691
O	     12.29733      6.32485     -8.04232         1.074738     -0.182348     -0.478109
O	      3.97727      2.10495     -0.10421         0.456950     -0.498210      0.224293
O	      6.20462      4.20333     -3.87086        -0.376336     -0.986877     -0.191033
O	      8.05006     -0.06143     -2.09266         0.638745     -0.925864      0.634871
O	      5.95383      6.28403      2.05309         0.156326     -1.003598      0.490008
O	      7.96675      8.28805     -1.94729         1.268164      1.227662      0.643702
O	      9.98425      4.22785     -0.04267         0.420378     -1.275910      0.608088
O	     12.03400      6.22119     -3.93871         1.368542      0.211092      0.460353
O	      2.08037      1.86178     -2.09080        -0.746704     -0.910594      0.071404
O	      4.12360      3.90708     -6.06466        -0.279948      0.818161      0.290132
O	      6.16935     -0.19550     -4.10177        -0.214894     -0.422057      0.148035
O	      8.31850      1.81026     -8.07012        -0.495090      0.680676     -0.489005
O	      3.98122      6.03276     -0.09963        -0.386276      0.680320      1.356916
O	      6.06051      7.97269     -4.08503        -0.498019      1.202339      0.801216
O	     10.16362      6.14207     -6.11952        -0.052916      0.812707     -0.320672
O	      6.15784      6.14908     -5.83936        -0.056047     -1.040985     -1.042547
O	     10.25623      4.19685     -7.96068         0.206517      0.230484     -1.114692
O	      6.01251      8.26899      0.14985        -0.235468      0.218301     -0.151350
O	      8.05814     10.30250     -3.80614         0.432178      1.358823      0.530809
O	     10.10658      6.19331     -1.85723         0.273545      0.356377     -0.356183
O	     12.16256      8.24062     -5.83620         0.360250     -0.377085      0.211732
