# total energy = -595.03057675 eV
 
CRYSTAL
PRIMVEC
4.159863 8.428523 4.143130 
8.429176 -4.264405 -4.163565 
4.219506 4.139071 -8.199835 
PRIMCOORD
92 1
Li	      4.17489      1.71838     -2.05233        -0.330602     -0.036321     -0.105998
Li	      6.30443      4.01062     -6.08008        -0.091438      0.193004     -0.282585
Li	      8.31689     -0.34827     -4.09174         0.079752     -0.274148      0.135896
Li	     10.40695      1.74377     -8.35201         0.017028     -0.005892     -0.068220
Li	      6.14892      6.21154     -0.00038         0.018317      0.068313     -0.076825
Li	      8.24052      8.16402     -4.02241        -0.008622      0.398913      0.156431
Li	     10.44312      4.20591     -2.02246        -0.020924     -0.285565      0.200262
Li	     12.33761      6.11012     -6.07531         0.012929      0.113149     -0.014156
Li	      4.10040      0.01196     -4.04028        -0.111100     -0.222985     -0.040509
Li	     10.19950     10.21656     -3.96387        -0.071997      0.234607     -0.031780
Li	     12.28987      6.06485     -2.02026         0.124114     -0.147970      0.365029
Li	     14.36284      8.05866     -6.04296         0.124345      0.188885      0.072509
Li	      6.26280      3.89486     -2.08559         0.001333      0.094112     -0.005476
Li	      8.31246      6.18233     -6.02234         0.001230      0.205962     -0.178385
Li	     10.50061      2.25896     -3.83342         0.216064     -0.379555     -0.240505
Li	     12.31557      3.84167     -8.10896         0.086767      0.207863     -0.094711
Li	      6.02173      1.96547     -4.01906         0.279900     -0.063152      0.104189
Li	      8.32141      4.08006     -8.03112         0.026838     -0.047631     -0.481626
Li	     10.08497     -0.40953     -6.05522         0.510219     -0.185550      0.058402
Li	     12.37742      1.96290    -10.12174         0.040902      0.055421     -0.378551
Li	      8.14848      6.46930     -1.99835         0.235795      0.022577      0.233465
Li	     10.22038      8.14847     -5.90122         0.145718     -0.108101      0.026303
Li	     12.32552      4.10294     -4.05715         0.204102      0.010736     -0.005270
Li	     14.33833      6.16652     -8.05504         0.504876      0.008028     -0.219618
Mn	      8.25236      4.09866     -4.06632        -0.023691     -0.605238      0.913148
Mn	      6.17631      2.06133     -0.04503        -0.742518     -1.272187      1.868763
Mn	      4.17775      6.25930     -1.98520        -1.079908      0.124502      1.006729
Mn	      6.15390      8.11768     -6.00549        -0.451161      1.835138     -1.373731
Mn	      6.16543     -0.06794     -6.01315        -0.871165     -2.030481     -0.810647
Mn	     12.30779     10.22031     -5.98095         1.496374      2.339311     -0.769419
Mn	     14.37645      6.08917     -4.01035         0.734450      1.027959      0.057291
Mn	      4.12118      4.03327     -7.99833        -0.387412      0.279771     -2.247550
Mn	      2.11844      1.98413      0.00545        -1.982831     -0.074001      0.382391
Mn	      4.15862      4.07975     -4.12307        -1.205253      0.522522      0.806204
Mn	      6.23606     -0.08457     -2.04971        -1.004924     -1.590729      0.369348
Mn	      8.20050      1.97401     -6.11542         0.761473     -0.041932      0.360665
Mn	      4.07684      6.18028      2.08177        -1.968401      0.444364      1.136373
Mn	      6.09782      8.30546     -2.00310        -0.676186      1.419213      0.460840
Mn	      8.17119      4.15090      0.07682        -0.009441     -0.488217      0.218512
Mn	     10.24689      6.18392     -4.00435         0.614797      0.530074      0.072710
Mn	      6.14912      8.23461      2.03258         0.297452      1.859721      1.824953
Mn	      4.14116      2.00983     -6.02731        -1.214528     -1.812832     -0.991048
Mn	     10.25810      6.15624     -0.01264         0.723351      1.295362      2.048052
Mn	      8.28559     -0.07956     -8.06253        -0.240924     -1.913324     -0.741214
Mn	      4.16071      4.11124      0.07624        -0.755956      0.017230      0.396358
Mn	      6.25138      6.16427     -4.00862        -0.147283      0.130504     -0.169585
Mn	      8.31552      1.92440     -2.04754         0.780305      0.302262     -0.064680
Mn	     10.38161      4.19132     -6.07651         0.610761     -0.462014     -0.414352
O	      4.29463     -0.19819     -2.05013        -0.937406     -0.729177      0.059471
O	      6.22869      1.83040     -5.99735        -0.412453      0.844970     -0.221804
O	      8.42164     -2.31534     -4.09268         0.155454     -1.214849     -0.049734
O	     10.38475     -0.28294     -7.99389         0.214371     -0.775087     -0.568673
O	      6.25227      3.98557     -0.20466        -0.217606      0.588558      0.124650
O	      8.36625      6.13434     -3.97624        -0.510335      0.299735     -0.015815
O	     10.33869      1.81486     -2.05604         0.398112     -0.457072      0.421009
O	     12.41065      4.09253     -6.07474         0.297089     -0.394401     -0.175418
O	      6.23120      1.91647     -2.00172        -0.191735      0.277418     -0.535130
O	      8.36009      3.86397     -6.05241        -0.233774      0.735242     -0.581566
O	     10.29736     -0.28929     -3.98753         0.785959     -0.442003     -0.123596
O	     12.25953      1.85425     -7.95703         0.328867     -0.355813     -1.889184
O	      8.08869      6.03164      0.13777        -0.050034      0.410010      0.359141
O	     10.22128      8.09902     -3.83846         0.349608      1.333435      0.095822
O	     12.26101      3.91197     -1.88806         1.319038     -0.128918      0.241683
O	     14.31785      6.03669     -5.90440         0.713261      0.429182     -0.692754
O	      4.17630      2.06283     -4.11572        -0.412823     -0.434246      0.297392
O	      6.29238      4.14544     -8.16107        -0.021469     -0.201254     -0.927023
O	      8.32883      0.03385     -6.13415        -0.187862     -0.552700      0.207573
O	     10.38901      2.04040    -10.22893         0.089361     -0.229000     -1.305163
O	      6.20876      6.35126     -2.11380         0.284622     -0.883503      0.701288
O	      8.28767      8.37743     -5.96647         0.265852      0.218551     -0.777915
O	     10.27232      4.20998     -4.02279         0.358193     -0.618256      0.156357
O	     12.42379      6.38989     -8.12502         0.803781     -0.138650     -0.382585
O	      4.01817      2.12659     -0.10529         0.296738     -0.382572      0.173666
O	      6.26842      4.24656     -3.91067        -0.301010     -0.738080     -0.148671
O	      8.13283     -0.06206     -2.11418         0.442459     -0.733417      0.494216
O	      6.01505      6.34865      2.07420         0.145698     -0.754870      0.402945
O	      8.04868      8.37328     -1.96731         0.978529      1.011772      0.497867
O	     10.08692      4.27132     -0.04311         0.309056     -0.950074      0.486797
O	     12.15773      6.28516     -3.97920         1.065508      0.213009      0.375575
O	      2.10176      1.88093     -2.11229        -0.604565     -0.781238      0.062343
O	      4.16600      3.94726     -6.12702        -0.223795      0.613813      0.168761
O	      6.23278     -0.19751     -4.14395        -0.170499     -0.382611      0.065892
O	      8.40405      1.82888     -8.15311        -0.424015      0.473711     -0.464119
O	      4.02215      6.09480     -0.10065        -0.328955      0.538035      1.106514
O	      6.12282      8.05467     -4.12703        -0.389800      0.918807      0.603874
O	     10.26812      6.20522     -6.18244        -0.029765      0.677449     -0.304281
O	      6.22116      6.21232     -5.89940        -0.031912     -0.781093     -0.786341
O	     10.36169      4.24001     -8.04254         0.169905      0.185089     -0.945037
O	      6.07434      8.35401      0.15138        -0.194364      0.152818     -0.041901
O	      8.14099     10.40844     -3.84527         0.356694      1.129926      0.422186
O	     10.21051      6.25700     -1.87633         0.226342      0.320509     -0.221359
O	     12.28762      8.32537     -5.89621         0.266749     -0.194837      0.164669
