# total energy = -91.82582237 eV
 
CRYSTAL
PRIMVEC
-0.000006 2.067469 2.067499 
8.064037 2.104605 -2.104619 
0.002240 4.203937 -4.203932 
PRIMCOORD
16 1
Li	      1.97841      2.11606     -0.04419        -0.017976      0.010154     -0.010505
Li	      6.09065      4.24851     -2.17704         0.021703      0.002778     -0.003557
Li	      0.08094      2.07955     -2.07497        -0.004083     -0.009849      0.008921
Li	      1.98709      4.15858     -2.08697        -0.026939     -0.014241      0.014013
Mn	      0.08730      4.22046     -4.21626         0.006888      0.023138     -0.024469
Mn	      3.96634      2.11940     -2.11527        -0.049219      0.004722     -0.004334
Ni	      3.96641      4.19397     -4.18989        -0.047009     -0.010642      0.011320
Ni	      6.07575      6.24909     -4.17739         0.070047     -0.010929      0.009268
O	      5.97788      4.25047     -4.24626         0.050725     -0.165871      0.164439
O	      0.01965      4.31785     -2.24626         0.147725      0.036373     -0.034961
O	      6.04244      2.03422     -2.02998         0.007506      0.141837     -0.142177
O	      8.05308      4.06314     -1.99153         0.037765     -0.027533      0.028616
O	      2.14823      2.10888     -2.10470         0.085840      0.012310     -0.010671
O	      4.05383      4.13615     -2.06461        -0.033918     -0.137458      0.137824
O	      1.94213      4.21072     -4.20673        -0.106587     -0.001735      0.002563
O	      4.01738      2.13208     -0.06039        -0.142468      0.146945     -0.146290
