# total energy = -598.89584019 eV
 
CRYSTAL
PRIMVEC
4.202311 8.514529 4.185407 
8.515188 -4.307919 -4.206050 
4.262562 4.181306 -8.283506 
PRIMCOORD
92 1
Li	      4.26053      1.75363     -2.09443        -0.160830     -0.020538     -0.048240
Li	      6.43375      4.09289     -6.20479        -0.039031      0.097429     -0.138240
Li	      8.48748     -0.35542     -4.17568         0.033629     -0.141239      0.071181
Li	     10.62042      1.77954     -8.52333         0.026275     -0.020991     -0.029362
Li	      6.27504      6.33895     -0.00039         0.009049      0.029712     -0.046048
Li	      8.40955      8.33148     -4.10493        -0.003103      0.178870      0.080047
Li	     10.65732      4.29218     -2.06394        -0.007207     -0.134266      0.087441
Li	     12.59069      6.23545     -6.19993         0.011268      0.034309     -0.005929
Li	      4.18451      0.01220     -4.12316        -0.051581     -0.106619     -0.024597
Li	     10.40871     10.42613     -4.04518        -0.021413      0.117899     -0.015429
Li	     12.54197      6.18926     -2.06170         0.065926     -0.059857      0.173470
Li	     14.65745      8.22396     -6.16692         0.064342      0.090610      0.034748
Li	      6.39127      3.97475     -2.12837         0.011117      0.023910     -0.012634
Li	      8.48297      6.30915     -6.14587         0.008146      0.101050     -0.073568
Li	     10.71600      2.30530     -3.91204         0.120201     -0.173390     -0.119123
Li	     12.56819      3.92047     -8.27529         0.045976      0.119583     -0.036876
Li	      6.14525      2.00579     -4.10149         0.122837     -0.041216      0.048124
Li	      8.49210      4.16375     -8.19586         0.021383     -0.018047     -0.212524
Li	     10.29183     -0.41793     -6.17942         0.238102     -0.074610      0.024653
Li	     12.63132      2.00316    -10.32936         0.028796      0.036740     -0.190300
Li	      8.31562      6.60200     -2.03934         0.103189      0.017578      0.100210
Li	     10.43001      8.31561     -6.02227         0.070749     -0.076754      0.010281
Li	     12.57835      4.18710     -4.14038         0.100014      0.016116     -0.021945
Li	     14.63244      6.29302     -8.22026         0.252204     -0.001535     -0.130960
Mn	      8.42164      4.18274     -4.14973        -0.009552     -0.300886      0.448889
Mn	      6.30300      2.10362     -0.04596        -0.300642     -0.615734      0.947259
Mn	      4.26344      6.38770     -2.02592        -0.580231      0.027672      0.415939
Mn	      6.28013      8.28419     -6.12868        -0.202630      0.892577     -0.609515
Mn	      6.29190     -0.06933     -6.13650        -0.415296     -0.984967     -0.362317
Mn	     12.56024     10.42995     -6.10364         0.748665      1.277274     -0.395046
Mn	     14.67134      6.21408     -4.09260         0.413947      0.583547     -0.016235
Mn	      4.20572      4.11600     -8.16239        -0.172996      0.119189     -1.097210
Mn	      2.16189      2.02483      0.00555        -0.970724     -0.017894      0.211762
Mn	      4.24393      4.16344     -4.20763        -0.571783      0.216021      0.408803
Mn	      6.36397     -0.08630     -2.09176        -0.458323     -0.743529      0.183157
Mn	      8.36871      2.01450     -6.24086         0.399540      0.002568      0.216233
Mn	      4.16047      6.30706      2.12448        -1.000504      0.224614      0.568494
Mn	      6.22290      8.47582     -2.04419        -0.353856      0.641416      0.208444
Mn	      8.33880      4.23604      0.07839        -0.051412     -0.238289      0.074716
Mn	     10.45708      6.31077     -4.08649         0.265371      0.216975      0.014092
Mn	      6.27524      8.40353      2.07427         0.124182      0.948192      0.978631
Mn	      4.22610      2.05106     -6.15094        -0.597162     -0.895566     -0.430586
Mn	     10.46852      6.28252     -0.01290         0.356963      0.658053      1.101168
Mn	      8.45555     -0.08120     -8.22791        -0.105762     -0.946694     -0.340417
Mn	      4.24606      4.19556      0.07781        -0.355994      0.019720      0.166955
Mn	      6.37960      6.29072     -4.09084        -0.059782      0.075667     -0.081004
Mn	      8.48608      1.96387     -2.08954         0.372973      0.163547     -0.055457
Mn	     10.59456      4.27730     -6.20115         0.290082     -0.236633     -0.185789
O	      4.38272     -0.20226     -2.09218        -0.469496     -0.526601      0.036184
O	      6.35645      1.86794     -6.12037        -0.243998      0.352735     -0.118135
O	      8.59439     -2.36284     -4.17663         0.107802     -0.659043     -0.022944
O	     10.59776     -0.28875     -8.15785         0.075511     -0.427338     -0.288552
O	      6.38050      4.06731     -0.20885        -0.062140      0.294735      0.080396
O	      8.53787      6.26017     -4.05781        -0.199033      0.168538     -0.003548
O	     10.55075      1.85209     -2.09821         0.267974     -0.261211      0.208467
O	     12.66522      4.17648     -6.19934         0.236657     -0.161430     -0.093843
O	      6.35900      1.95578     -2.04277        -0.116357      0.104121     -0.216340
O	      8.53158      3.94323     -6.17656        -0.149755      0.356784     -0.284495
O	     10.50858     -0.29522     -4.06933         0.356430     -0.251551     -0.062773
O	     12.51099      1.89228     -8.12025         0.197854     -0.157526     -0.848612
O	      8.25460      6.15536      0.14061        -0.007793      0.157133      0.242714
O	     10.43095      8.26515     -3.91719         0.149784      0.648127      0.032187
O	     12.51251      3.99222     -1.92679         0.665237     -0.075833      0.161922
O	     14.61154      6.16050     -6.02552         0.389694      0.238696     -0.296214
O	      4.26196      2.10514     -4.20014        -0.217395     -0.238249      0.081666
O	      6.42145      4.23047     -8.32847        -0.022159     -0.123314     -0.586844
O	      8.49967      0.03454     -6.25998        -0.108181     -0.287442      0.062489
O	     10.60211      2.08226    -10.43875         0.029373     -0.150426     -0.770524
O	      6.33611      6.48154     -2.15716         0.143898     -0.391991      0.326681
O	      8.45767      8.54927     -6.08885         0.147319      0.136517     -0.368631
O	     10.48303      4.29634     -4.10532         0.172211     -0.250234      0.129229
O	     12.67862      6.52097     -8.29168         0.341432     -0.061938     -0.171593
O	      4.10060      2.17022     -0.10745         0.080542     -0.184277      0.078942
O	      6.39700      4.33366     -3.99090        -0.158770     -0.319998     -0.071678
O	      8.29966     -0.06334     -2.15754         0.144673     -0.374397      0.237367
O	      6.13843      6.47888      2.11676         0.085158     -0.331478      0.198957
O	      8.21378      8.54504     -2.00767         0.442024      0.537303      0.228282
O	     10.29383      4.35894     -0.04399         0.126947     -0.413968      0.240375
O	     12.40713      6.41409     -4.06082         0.505186      0.157814      0.188700
O	      2.14488      1.91951     -2.15563        -0.315009     -0.448823      0.021912
O	      4.25145      4.02822     -6.25270        -0.116008      0.270548      0.002653
O	      6.36063     -0.20156     -4.22895        -0.086177     -0.245074     -0.023610
O	      8.57643      1.86639     -8.32034        -0.234435      0.162491     -0.295706
O	      4.10467      6.21982     -0.10272        -0.177978      0.282394      0.584138
O	      6.24841      8.21989     -4.21168        -0.188603      0.428383      0.270431
O	     10.47875      6.33251     -6.30925        -0.011126      0.369875     -0.189372
O	      6.34876      6.33975     -6.02041         0.005249     -0.345006     -0.344953
O	     10.57423      4.32698     -8.20751         0.093834      0.095930     -0.535279
O	      6.19893      8.52537      0.15449        -0.102441      0.050178      0.048840
O	      8.30798     10.62194     -3.92415         0.182469      0.599643      0.207751
O	     10.41995      6.38534     -1.91481         0.117701      0.202933     -0.040966
O	     12.53967      8.49614     -6.01715         0.106782     -0.009313      0.068984
