# total energy = -599.86885192 eV
 
CRYSTAL
PRIMVEC
4.223534 8.557531 4.206546 
8.558194 -4.329677 -4.227293 
4.284090 4.202424 -8.325342 
PRIMCOORD
92 1
Li	      4.30367      1.77139     -2.11565        -0.079865     -0.011886     -0.019823
Li	      6.49890      4.13434     -6.26762        -0.017960      0.049394     -0.071365
Li	      8.57344     -0.35902     -4.21796         0.010016     -0.071286      0.038227
Li	     10.72797      1.79755     -8.60965         0.025089     -0.025223     -0.009380
Li	      6.33858      6.40314     -0.00039         0.004659      0.011268     -0.025221
Li	      8.49470      8.41585     -4.14649         0.000024      0.078791      0.039377
Li	     10.76524      4.33565     -2.08484        -0.007396     -0.058461      0.034196
Li	     12.71818      6.29860     -6.26270         0.009038      0.006405     -0.002506
Li	      4.22688      0.01232     -4.16491        -0.026984     -0.056063     -0.014019
Li	     10.51412     10.53170     -4.08614        -0.000389      0.058447     -0.011466
Li	     12.66897      6.25193     -2.08258         0.041230     -0.019110      0.084217
Li	     14.80588      8.30724     -6.22937         0.029671      0.045971      0.007263
Li	      6.45598      4.01500     -2.14993         0.016753     -0.010611     -0.011713
Li	      8.56887      6.37304     -6.20811         0.000100      0.052283     -0.029611
Li	     10.82451      2.32865     -3.95166         0.064804     -0.074162     -0.061636
Li	     12.69547      3.96018     -8.35910         0.023442      0.079841     -0.013299
Li	      6.20748      2.02611     -4.14303         0.060254     -0.035163      0.025461
Li	      8.57810      4.20591     -8.27885         0.008743     -0.007916     -0.086583
Li	     10.39605     -0.42216     -6.24200         0.108998     -0.032052      0.020305
Li	     12.75922      2.02344    -10.43396         0.017922      0.024117     -0.090926
Li	      8.39983      6.66886     -2.05998         0.040778      0.011009      0.043738
Li	     10.53564      8.39982     -6.08325         0.037267     -0.051613      0.001488
Li	     12.70572      4.22950     -4.18230         0.051017      0.018921     -0.018394
Li	     14.78061      6.35674     -8.30351         0.121567     -0.007062     -0.077047
Mn	      8.50692      4.22509     -4.19175        -0.003886     -0.162566      0.239217
Mn	      6.36683      2.12492     -0.04641        -0.136254     -0.295487      0.483551
Mn	      4.30662      6.45238     -2.04644        -0.320173     -0.011617      0.189776
Mn	      6.34372      8.36809     -6.19074        -0.090023      0.438657     -0.279358
Mn	      6.35562     -0.07003     -6.19864        -0.199238     -0.495991     -0.162513
Mn	     12.68744     10.53557     -6.16545         0.373082      0.665901     -0.182689
Mn	     14.81992      6.27701     -4.13405         0.221127      0.305777     -0.003608
Mn	      4.24831      4.15768     -8.24505        -0.077096      0.061444     -0.539608
Mn	      2.18379      2.04534      0.00561        -0.473499     -0.004319      0.118194
Mn	      4.28690      4.20560     -4.25024        -0.259293      0.090351      0.229549
Mn	      6.42841     -0.08718     -2.11294        -0.208907     -0.357560      0.096148
Mn	      8.45346      2.03490     -6.30407         0.230748      0.009527      0.134964
Mn	      4.20259      6.37092      2.14600        -0.516365      0.104044      0.281847
Mn	      6.28591      8.56165     -2.06489        -0.188110      0.297607      0.090896
Mn	      8.42325      4.27894      0.07919        -0.049381     -0.125724      0.013849
Mn	     10.56297      6.37468     -4.12787         0.112052      0.082937     -0.008154
Mn	      6.33879      8.48862      2.09528         0.048764      0.493071      0.517213
Mn	      4.26890      2.07183     -6.21323        -0.289314     -0.432723     -0.196263
Mn	     10.57453      6.34613     -0.01303         0.183092      0.342608      0.575407
Mn	      8.54118     -0.08202     -8.31123        -0.045742     -0.467626     -0.166483
Mn	      4.28905      4.23806      0.07860        -0.174795      0.018581      0.047660
Mn	      6.44421      6.35442     -4.13227        -0.030519      0.043963     -0.045953
Mn	      8.57203      1.98376     -2.11070         0.184167      0.103026     -0.054509
Mn	     10.70184      4.32060     -6.26395         0.136688     -0.134608     -0.086158
O	      4.42711     -0.20430     -2.11337        -0.228709     -0.322328      0.020111
O	      6.42083      1.88685     -6.18234        -0.153999      0.157522     -0.062915
O	      8.68142     -2.38676     -4.21893         0.062524     -0.336641     -0.013545
O	     10.70508     -0.29167     -8.24046         0.010098     -0.226757     -0.147192
O	      6.44512      4.10850     -0.21097        -0.002363      0.154324      0.048573
O	      8.62433      6.32356     -4.09890        -0.071787      0.110367      0.000737
O	     10.65759      1.87084     -2.11946         0.174195     -0.137622      0.113718
O	     12.79347      4.21876     -6.26213         0.168099     -0.056782     -0.046393
O	      6.42340      1.97559     -2.06345        -0.075896      0.048938     -0.099578
O	      8.61797      3.98315     -6.23911        -0.099690      0.185785     -0.157069
O	     10.61501     -0.29821     -4.11054         0.145074     -0.139577     -0.022700
O	     12.63769      1.91144     -8.20248         0.100167     -0.064396     -0.407357
O	      8.33819      6.21769      0.14203         0.005419      0.058640      0.139014
O	     10.53657      8.34884     -3.95686         0.061304      0.315272     -0.002684
O	     12.63922      4.03264     -1.94630         0.338210     -0.039583      0.095242
O	     14.75950      6.22289     -6.08654         0.199409      0.128322     -0.137755
O	      4.30512      2.12645     -4.24267        -0.112309     -0.143236      0.019857
O	      6.48648      4.27331     -8.41281        -0.006744     -0.065499     -0.337937
O	      8.58574      0.03489     -6.32337        -0.060876     -0.155233      0.022941
O	     10.70947      2.10333    -10.54446         0.012442     -0.095279     -0.425103
O	      6.40028      6.54718     -2.17900         0.085896     -0.176042      0.167504
O	      8.54332      8.63585     -6.15050         0.086653      0.091443     -0.163654
O	     10.58919      4.33984     -4.14688         0.088135     -0.093067      0.104420
O	     12.80701      6.58699     -8.37565         0.157587     -0.018035     -0.050586
O	      4.14212      2.19219     -0.10853         0.016207     -0.110425      0.037436
O	      6.46178      4.37755     -4.03130        -0.076161     -0.147076     -0.040964
O	      8.38371     -0.06397     -2.17939         0.047216     -0.205731      0.119575
O	      6.20059      6.54449      2.13819         0.034410     -0.157684      0.095498
O	      8.29695      8.63157     -2.02800         0.211650      0.283827      0.101340
O	     10.39807      4.40308     -0.04443         0.055034     -0.199724      0.111035
O	     12.53276      6.47904     -4.10195         0.250450      0.097160      0.084211
O	      2.16659      1.93895     -2.17746        -0.167969     -0.237957     -0.004549
O	      4.29451      4.06901     -6.31602        -0.057464      0.122302     -0.034722
O	      6.42504     -0.20361     -4.27178        -0.042563     -0.139384     -0.042239
O	      8.66328      1.88529     -8.40461        -0.131946      0.053388     -0.170665
O	      4.14623      6.28281     -0.10375        -0.093635      0.169373      0.319452
O	      6.31169      8.30313     -4.25434        -0.099489      0.221399      0.131944
O	     10.58486      6.39663     -6.37315        -0.008896      0.208761     -0.101383
O	      6.41306      6.40394     -6.08139         0.015942     -0.168375     -0.153659
O	     10.68132      4.37080     -8.29062         0.055016      0.051152     -0.303438
O	      6.26171      8.61170      0.15605        -0.047401      0.013728      0.031948
O	      8.39211     10.72950     -3.96388         0.091039      0.296899      0.093730
O	     10.52547      6.45001     -1.93420         0.064614      0.112561      0.000027
O	     12.66666      8.58217     -6.07809         0.035205      0.010157      0.023512
