# total energy = -599.92930467 eV
 
CRYSTAL
PRIMVEC
4.265982 8.643537 4.248823 
8.644206 -4.373191 -4.269778 
4.327146 4.244659 -8.409014 
PRIMCOORD
92 1
Li	      4.39061      1.80718     -2.15839         0.075516      0.015068      0.028447
Li	      6.63018      4.21786     -6.39424         0.017999     -0.041429      0.059739
Li	      8.74663     -0.36627     -4.30316        -0.026049      0.068937     -0.029578
Li	     10.94468      1.83387     -8.78357         0.008302     -0.020791      0.032472
Li	      6.46663      6.53249     -0.00039         0.003970     -0.021423      0.023888
Li	      8.66631      8.58586     -4.23026         0.018492     -0.104924     -0.037249
Li	     10.98273      4.42324     -2.12696        -0.022822      0.090877     -0.070874
Li	     12.97511      6.42583     -6.38923         0.009769     -0.030990      0.001956
Li	      4.31227      0.01258     -4.24905         0.009155      0.035185      0.003999
Li	      6.46053      2.10092     -8.41751         0.023473     -0.060562     -0.014984
Li	     12.92491      6.37823     -2.12465        -0.015476      0.058140     -0.082753
Li	     15.10498      8.47506     -6.35521        -0.046624     -0.045581     -0.054741
Li	      6.58640      4.09611     -2.19335         0.021208     -0.069606     -0.015408
Li	      8.74197      6.50178     -6.33352        -0.019752     -0.033987      0.053983
Li	     11.04318      2.37568     -4.03149        -0.083076      0.109491      0.049649
Li	     12.95193      4.04018     -8.52796        -0.021567      0.007266      0.041559
Li	      6.33288      2.06703     -4.22672        -0.056289     -0.019395     -0.020825
Li	      8.75139      4.29088     -8.44610        -0.019364      0.007219      0.150404
Li	     10.60607     -0.43069     -6.36810        -0.119203      0.037031      0.031767
Li	     13.01699      2.06432    -10.64475        -0.014541      0.002367      0.124732
Li	      8.56951      6.80358     -2.10160        -0.070779     -0.019470     -0.050919
Li	     10.74847      8.56950     -6.20615        -0.025878      0.011562     -0.015552
Li	     12.96239      4.31494     -4.26679        -0.038986      0.024570      0.018364
Li	     15.07920      6.48516     -8.47125        -0.140911     -0.018177      0.045128
Mn	      8.67877      4.31044     -4.27643         0.001046      0.087653     -0.127894
Mn	      6.49545      2.16784     -0.04736         0.090215      0.309667     -0.450495
Mn	      4.39361      6.58273     -2.08777         0.196767     -0.068342     -0.122227
Mn	      2.14474      4.29248      2.09321         0.109750     -0.448875      0.291681
Mn	      6.48402     -0.07145     -6.32387         0.196862      0.443972      0.197337
Mn	      4.35061     -2.13979     -2.12981        -0.365167     -0.794317      0.275609
Mn	      2.20911      2.13346     -4.19662        -0.243860     -0.351056      0.077887
Mn	      4.33413      4.24167     -8.41161         0.082176     -0.005911      0.550363
Mn	      2.22791      2.08666      0.00572         0.509555      0.002283     -0.084050
Mn	      4.37350      4.29056     -4.33611         0.361953     -0.101736     -0.093241
Mn	      6.55828     -0.08894     -2.15563         0.255112      0.350499     -0.064585
Mn	      8.62423      2.07602     -6.43141        -0.074252      0.000105     -0.035735
Mn	      4.28750      6.49963      2.18934         0.452903     -0.164243     -0.292051
Mn	      6.41289      8.73461     -2.10660         0.161332     -0.310376     -0.131318
Mn	      8.59341      4.36538      0.08079        -0.012453      0.059266     -0.113865
Mn	     10.77637      6.50346     -4.21126        -0.151154     -0.146931     -0.038361
Mn	      2.20087      0.01657     -2.11122        -0.071297     -0.430460     -0.558890
Mn	      4.35514      2.11368     -6.33875         0.332588      0.503586      0.193649
Mn	      6.52217     -2.16920     -4.26211        -0.136704     -0.306296     -0.666806
Mn	      8.71372     -0.08368     -8.47912         0.061010      0.499130      0.153580
Mn	      4.37570      4.32367      0.08019         0.160415      0.011332     -0.201515
Mn	      6.57438      6.48278     -4.21575         0.016498     -0.026366      0.017100
Mn	      8.74519      2.02383     -2.15334        -0.173493     -0.002734     -0.057126
Mn	     10.91803      4.40789     -6.39049        -0.146142      0.040923      0.097629
O	      4.51654     -0.20843     -2.15606         0.236458      0.389131     -0.018182
O	      6.55053      1.92497     -6.30724         0.025931     -0.125234      0.047693
O	      8.85680     -2.43498     -4.30415        -0.072775      0.374267     -0.010068
O	     10.92134     -0.29757     -8.40693        -0.133150      0.212658      0.119027
O	      6.57532      4.19151     -0.21523         0.100083     -0.098118     -0.015652
O	      8.79855      6.45131     -4.18170         0.124422     -0.008928      0.014690
O	     10.87289      1.90864     -2.16227        -0.071908      0.177912     -0.065532
O	     13.05193      4.30399     -6.38863        -0.070011      0.124155      0.052099
O	      6.55317      2.01550     -2.10514        -0.010124     -0.004243      0.071534
O	      8.79208      4.06362     -6.36515         0.015504     -0.117622      0.057075
O	     10.82944     -0.30424     -4.19358        -0.263575      0.114706      0.054241
O	     12.89299      1.95006     -8.36818        -0.137229      0.121731      0.302729
O	      8.50664      6.34330      0.14490         0.011653     -0.068641     -0.172228
O	     10.74943      8.51750     -4.03679        -0.083091     -0.309201     -0.052787
O	     12.89455      4.11411     -1.98561        -0.315041      0.032139     -0.107309
O	     15.05768      6.34861     -6.20950        -0.255162     -0.114555      0.101301
O	      4.39208      2.16941     -4.32838         0.127723      0.039278     -0.030492
O	      6.61751      4.35964     -8.58276         0.051482      0.065505      0.413983
O	      8.75919      0.03560     -6.45111         0.038264      0.097679     -0.022255
O	     10.92582      2.14583    -10.75748         0.005107      0.028225      0.513976
O	      6.52958      6.67944     -2.22302        -0.017384      0.172278     -0.088660
O	      8.71591      8.81031     -6.27475        -0.042256     -0.024567      0.254961
O	     10.80311      4.42752     -4.23066        -0.064178      0.160949      0.027028
O	     13.06574      6.72006     -8.54485        -0.133872      0.095032      0.183429
O	      4.22579      2.23647     -0.11072        -0.036092      0.003205     -0.041752
O	      6.59231      4.46598     -4.11274         0.075954      0.122421      0.026647
O	      8.55307     -0.06527     -2.22342        -0.072162      0.108717     -0.115390
O	      6.32585      6.67669      2.18138        -0.083801      0.111704     -0.138092
O	      8.46456      8.80593     -2.06896        -0.168197     -0.276687     -0.123773
O	     10.60812      4.49203     -0.04533        -0.045228      0.146606     -0.162273
O	     12.78595      6.60992     -4.18481        -0.182372     -0.115790     -0.128672
O	      2.21037      1.97812     -2.22145         0.132008      0.285172     -0.027000
O	      4.38126      4.15121     -6.44361         0.063926     -0.126683     -0.046716
O	      6.55484     -0.20771     -4.35807         0.037823      0.162527     -0.022810
O	      8.83829      1.92337     -8.57439         0.092293     -0.065561      0.114717
O	      4.22999      6.40973     -0.10585         0.116783     -0.032381     -0.210573
O	      6.43919      8.47086     -4.34028         0.061286     -0.142110     -0.115763
O	     10.79870      6.52586     -6.50190        -0.000517     -0.120409      0.145756
O	      6.54261      6.53332     -6.20423         0.020025      0.110001      0.165300
O	     10.89710      4.45910     -8.45810        -0.028224     -0.041543      0.191840
O	      6.38821      8.78567      0.15921         0.087633     -0.036426     -0.079203
O	      8.56165     10.94625     -4.04396        -0.097548     -0.380219     -0.133773
O	     10.73810      6.58030     -1.97328        -0.038682     -0.134157      0.010385
O	     12.92254      8.75554     -6.20088        -0.082006     -0.045073     -0.029341
