# total energy = -595.22479831 eV
 
CRYSTAL
PRIMVEC
4.329653 8.772545 4.312238 
8.773224 -4.438462 -4.333506 
4.391730 4.308012 -8.534522 
PRIMCOORD
92 1
Li	      4.52265      1.86152     -2.22329         0.253241      0.034459      0.089331
Li	      6.82958      4.34470     -6.58653        -0.009106     -0.122778      0.189985
Li	      9.00967     -0.37728     -4.43258        -0.093619      0.125306     -0.070914
Li	     11.27384      1.88902     -9.04773        -0.045443      0.021551      0.022250
Li	      6.66111      6.72894     -0.00041         0.020376     -0.050884      0.104280
Li	      8.92694      8.84407     -4.35747         0.061677     -0.323876     -0.152783
Li	     11.31301      4.55626     -2.19092         0.071713      0.358322     -0.156639
Li	     13.36532      6.61908     -6.58137         0.024692     -0.059122      0.023484
Li	      4.44196      0.01295     -4.37683         0.021706      0.138901      0.054938
Li	      6.71945      2.29504     -8.60629         0.005878     -0.271085     -0.073560
Li	      8.98395     -2.20250     -6.50079        -0.123151      0.113486     -0.301128
Li	     11.22959     -0.04261    -10.85857        -0.215388     -0.163596     -0.173713
Li	      6.78448      4.21929     -2.25932        -0.147359     -0.105063      0.099453
Li	      9.00488      6.69732     -6.52399        -0.099597     -0.071432      0.163189
Li	     11.37529      2.44713     -4.15273        -0.070792      0.322803      0.246409
Li	     13.34144      4.16168     -8.78443        -0.095832     -0.078145      0.110123
Li	      6.52333      2.12920     -4.35383        -0.428727     -0.090704     -0.071176
Li	      9.01457      4.41993     -8.70010        -0.067676      0.022684      0.372615
Li	     10.92504     -0.44364     -6.55961        -0.394846      0.047540      0.103286
Li	     13.40844      2.12640    -10.96486        -0.129227     -0.001332      0.488258
Li	      8.82723      7.00819     -2.16480        -0.235681     -0.036181     -0.160287
Li	     11.07171      8.82723     -6.39279        -0.140389      0.143539     -0.009557
Li	     13.35222      4.44471     -4.39511        -0.119003      0.039938      0.112314
Li	     15.53269      6.68019     -8.72602        -0.541539     -0.059282      0.329306
Mn	      8.93978      4.44008     -4.40504        -0.005445      1.183393     -0.815358
Mn	      6.69079      2.23305     -0.04878         0.180915      1.090517     -1.823732
Mn	      4.52575      6.78069     -2.15056         1.030015     -0.066444     -0.289270
Mn	      2.27478      4.48586      2.02879         0.267672     -1.952811      0.973308
Mn	      6.67901     -0.07360     -6.51405         0.654189      1.659141      0.605657
Mn	      4.61161     -2.00892     -2.25688        -1.281660     -3.722387      0.942196
Mn	      2.47111      2.26231     -4.32314        -1.184595     -1.626397      0.288561
Mn	      0.07274      0.06122     -0.13006         0.195276      0.011846      2.050898
Mn	      2.29491      2.14941      0.00589         1.949541     -0.036577     -0.398734
Mn	      4.50503      4.41959     -4.46650         1.217059     -0.225165     -0.510075
Mn	      6.75551     -0.09161     -2.22045         0.721151      1.199896     -0.237363
Mn	      8.88359      2.13844     -6.62483        -0.608029     -0.279825     -0.868295
Mn	      4.41644      6.69509      2.25518         2.012579     -0.550257     -1.110534
Mn	      6.60575      8.99729     -2.16995         0.784692     -1.058493     -0.416771
Mn	      8.85184      4.49666      0.08322         0.096424      0.387836     -0.187704
Mn	     11.10045      6.69903     -4.33791        -0.266396     -0.230832     -0.090419
Mn	      2.33167      0.14801     -2.11034        -0.143583     -1.852315     -2.924775
Mn	      4.48611      2.17725     -6.52938         1.210467      1.833690      0.559056
Mn	      6.78293     -2.10350     -4.32593        -0.553204     -1.376490     -3.243991
Mn	      8.97577     -0.08619     -8.73413         0.109882      1.960703      0.452529
Mn	      4.50729      4.45370      0.08260         0.608557     -0.035841     -0.574813
Mn	      6.77210      6.67774     -4.34253         0.077356      0.031098      0.073598
Mn	      9.00819      2.08470     -2.21810        -0.742858     -0.551928      0.490673
Mn	     11.24638      4.54045     -6.58267        -0.311648      0.363236      0.200073
O	      4.65237     -0.21469     -2.22091         0.389614      2.426120     -0.050320
O	      6.74753      1.98286     -6.49692         0.420100     -0.204468      0.331080
O	      9.12315     -2.50821     -4.43359        -0.374875      1.635017     -0.016172
O	     11.24978     -0.30652     -8.65976        -0.304046      1.137201      0.484508
O	      6.77306      4.31756     -0.22170         0.206213     -0.381289     -0.165427
O	      9.06315      6.64532     -4.30746         0.030458     -0.560176      0.029229
O	     11.19988      1.96604     -2.22730        -0.838730      1.117066     -0.536455
O	     13.44444      4.43343     -6.58076        -0.793560      0.280900      0.209266
O	      6.75024      2.07611     -2.16845         0.333465      0.507454     -0.029517
O	      9.05647      4.18582     -6.55657         0.167798     -0.605953      0.660930
O	     11.15511     -0.31338     -4.31969        -0.869424      0.721890      0.025157
O	     13.28073      2.00870     -8.61984        -0.557573      0.174032      0.997832
O	      8.76246      6.53407      0.14926        -0.033577     -0.159704     -0.850135
O	     11.07270      8.77366     -4.15819        -0.232142     -0.918732     -0.062549
O	     13.28233      4.23784     -2.04533        -1.265927      0.203595     -0.579953
O	     15.51050      6.53953     -6.39624        -1.099880     -0.394719      0.212166
O	      4.52417      2.23465     -4.45855         0.633171      0.395414      0.193178
O	      6.81653      4.49075     -8.84088         0.255235      0.280736      2.524427
O	      9.02261      0.03667     -6.64512         0.273525      0.603828      0.136535
O	     11.25440      2.21036    -11.08099         0.072122     -0.141438      2.788807
O	      6.72594      6.88031     -2.28988        -0.150905      0.442689     -0.239202
O	      8.97802      9.07526     -6.46345        -0.190146     -0.238761      0.856574
O	     11.12800      4.56067     -4.35789        -0.618203     -0.160816     -0.002045
O	      9.06694      2.61414     -0.26730        -0.386207      0.177088      0.297346
O	      4.35288      2.30373     -0.11406         0.060320      0.078621     -0.131821
O	      6.79057      4.60029     -4.23643         0.482860      0.014860      0.162873
O	      8.81029     -0.06723     -2.29029         0.408537      0.837910     -0.527643
O	      6.51609      6.87748      2.24698        -0.219709      0.327785     -0.506491
O	      8.71912      9.07076     -2.13118        -0.465701     -1.151073     -0.409944
O	     10.92715      4.62711     -0.04669        -0.122389      0.438612     -0.688977
O	     13.17047      6.80870     -4.31067        -0.459632     -0.681351     -0.445920
O	      2.27684      2.03761     -2.28825         0.552472      1.323306      0.126476
O	      4.51302      4.27605     -6.63739         0.331107     -0.458269      0.149948
O	      6.75197     -0.21396     -4.48914         0.173291      0.979291      0.000163
O	      9.10409      1.98122     -8.83225         0.421595     -0.052996      0.786722
O	      4.35720      6.60249     -0.10903         0.471912     -0.265939     -1.005469
O	      6.63284      8.72561     -4.47081         0.295482     -0.504627     -0.375947
O	     11.12345      6.72212     -6.69743         0.028337     -0.649721      0.702682
O	      6.73937      6.72980     -6.39081         0.012007      0.213900      0.422520
O	     11.22480      4.59320     -8.71247        -0.171233     -0.165066      1.140308
O	      6.58032      9.04988      0.16400         0.375033     -0.058389     -0.425348
O	      8.81913     11.27544     -4.16559        -0.342322     -1.531377     -0.529627
O	     11.06103      6.77820     -2.03262        -0.201292     -0.737368     -0.123802
O	     13.31116      9.01885     -6.38736        -0.217448     -0.385726     -0.020136
