# total energy = -592.47335006 eV
 
CRYSTAL
PRIMVEC
4.350877 8.815547 4.333376 
8.816230 -4.460220 -4.354749 
4.413259 4.329130 -8.576358 
PRIMCOORD
92 1
Li	      4.56710      1.87982     -2.24513         0.310391      0.057309      0.103460
Li	      6.89669      4.38740     -6.65126        -0.004038     -0.153643      0.250964
Li	      9.09822     -0.38099     -4.47615        -0.112304      0.188114     -0.088544
Li	     11.38463      1.90759     -9.13665        -0.065910      0.041696      0.035994
Li	      6.72657      6.79508     -0.00042         0.020326     -0.062443      0.127008
Li	      9.01468      8.93099     -4.40030         0.081091     -0.401661     -0.186014
Li	     11.42420      4.60104     -2.21245         0.051102      0.425534     -0.207593
Li	     13.49667      6.68413     -6.64605         0.020082     -0.059936      0.015709
Li	      4.48561      0.01307     -4.41985         0.021687      0.171533      0.068103
Li	      6.80681      2.36080     -8.66963        -0.009115     -0.345818     -0.084589
Li	      9.09357     -2.18093     -6.54343        -0.179621      0.131414     -0.365683
Li	     11.36129      0.00019    -10.94405        -0.293773     -0.208347     -0.217193
Li	      6.85116      4.26076     -2.28153        -0.146360     -0.129573      0.106225
Li	      9.09338      6.76314     -6.58811        -0.126004     -0.103954      0.206001
Li	     11.48709      2.47119     -4.19355        -0.216169      0.409948      0.312312
Li	     13.47256      4.20257     -8.87076        -0.126520     -0.099635      0.135520
Li	      6.58745      2.15012     -4.39663        -0.473354     -0.092554     -0.073366
Li	      9.10317      4.46336     -8.78561        -0.079123      0.030879      0.467633
Li	     11.03241     -0.44800     -6.62408        -0.479697      0.054133      0.141610
Li	     13.54023      2.14731    -11.07263        -0.183359      0.003109      0.636331
Li	      8.91398      7.07707     -2.18608        -0.286980     -0.071337     -0.201347
Li	     11.18052      8.91398     -6.45561        -0.177007      0.181724     -0.008456
Li	     13.48345      4.48839     -4.43830        -0.164029      0.045735      0.155716
Li	     15.68534      6.74584     -8.81177        -0.690321     -0.075885      0.430226
Mn	      9.02764      4.48371     -4.44833        -0.008205      1.360255     -0.944096
Mn	      6.75654      2.25498     -0.04926         0.189092      1.305843     -2.314722
Mn	      4.57023      6.84733     -2.17170         1.283961     -0.058503     -0.283648
Mn	      2.31877      4.55116      2.00668         0.295254     -2.419194      1.142847
Mn	      6.74465     -0.07432     -6.57807         0.804247      2.053943      0.715447
Mn	      4.69991     -1.96422     -2.29986        -1.500287     -5.086191      1.149760
Mn	      2.55994      2.30590     -4.36573        -1.513106     -2.091975      0.386467
Mn	      0.09509      0.08305     -0.17337         0.171100      0.033559      2.522981
Mn	      2.31746      2.17054      0.00595         2.444345     -0.020684     -0.512064
Mn	      4.54930      4.46303     -4.51040         1.541828     -0.222084     -0.627856
Mn	      6.82191     -0.09252     -2.24228         0.917076      1.481973     -0.294825
Mn	      8.97090      2.15946     -6.68993        -0.729802     -0.319529     -1.000925
Mn	      4.45984      6.76089      2.27735         2.494905     -0.709323     -1.402903
Mn	      6.67067      9.08572     -2.19128         1.005947     -1.288240     -0.493366
Mn	      8.93884      4.54085      0.08403         0.142215      0.423411     -0.292072
Mn	     11.20954      6.76488     -4.38054        -0.359693     -0.310594     -0.104399
Mn	      2.37592      0.19268     -2.10985        -0.180261     -2.298761     -4.020498
Mn	      4.53020      2.19864     -6.59355         1.528398      2.217459      0.648192
Mn	      6.87093     -2.08096     -4.34720        -0.686655     -1.747096     -4.505587
Mn	      9.06399     -0.08704     -8.81997         0.121145      2.504163      0.548865
Mn	      4.55159      4.49747      0.08341         0.739977     -0.058151     -0.716173
Mn	      6.83866      6.74337     -4.38521         0.114740      0.003867      0.090537
Mn	      9.09672      2.10518     -2.23990        -0.902464     -0.620089      0.535623
Mn	     11.35691      4.58507     -6.64737        -0.403616      0.432088      0.264369
O	      4.69809     -0.21681     -2.24274         0.422504      3.521919     -0.025329
O	      6.81384      2.00235     -6.56077         0.431168     -0.214700      0.388447
O	      9.21282     -2.53286     -4.47717        -0.491753      2.106168     -0.010169
O	     11.36034     -0.30953     -8.74487        -0.387051      1.500541      0.576246
O	      6.83963      4.35999     -0.22388         0.230346     -0.457818     -0.195902
O	      9.15223      6.71063     -4.34980         0.020280     -0.635505      0.034683
O	     11.30995      1.98536     -2.24919        -1.007166      1.397473     -0.619403
O	     13.57657      4.47700     -6.64544        -1.075246      0.322821      0.256967
O	      6.81658      2.09651     -2.18976         0.359987      0.551893     -0.025958
O	      9.14548      4.22696     -6.62101         0.226660     -0.735707      0.748000
O	     11.26475     -0.31646     -4.36215        -1.050374      0.891099      0.034710
O	     13.41126      2.02844     -8.70456        -0.707859      0.190545      1.145879
O	      8.84858      6.59828      0.15072        -0.072644     -0.140301     -1.098588
O	     11.18152      8.85988     -4.19906        -0.263703     -1.127803     -0.066814
O	     13.41287      4.27948     -2.06543        -1.538223      0.226098     -0.795382
O	     15.66295      6.60380     -6.45909        -1.373087     -0.505607      0.170291
O	      4.56864      2.25662     -4.50238         0.802923      0.486624      0.364049
O	      6.88352      4.53487     -8.92777         0.359878      0.345492      3.570381
O	      9.11129      0.03703     -6.71043         0.343107      0.735827      0.161825
O	      6.95175     -2.09705     -2.61354         0.129618     -0.116120      3.970606
O	      6.79205      6.94793     -2.31239        -0.175960      0.530805     -0.273429
O	      9.06626      9.16445     -6.52698        -0.216721     -0.255573      1.052847
O	     11.23736      4.60549     -4.40072        -0.705575     -0.164991     -0.053593
O	      9.17768      2.66106     -0.31196        -0.443556      0.251000      0.399396
O	      4.39566      2.32637     -0.11517         0.107768      0.077799     -0.165702
O	      6.85730      4.64550     -4.27806         0.557174      0.022213      0.182529
O	      8.89688     -0.06789     -2.31280         0.484350      0.981682     -0.655029
O	      6.58013      6.94508      2.26907        -0.297035      0.346989     -0.634102
O	      8.80480      9.15990     -2.15213        -0.550675     -1.442513     -0.475201
O	     11.03453      4.67259     -0.04715        -0.135886      0.502664     -0.852311
O	     13.29990      6.87562     -4.35304        -0.494834     -0.948152     -0.554465
O	      2.29921      2.05763     -2.31074         0.678960      1.684866      0.229218
O	      4.55737      4.31808     -6.70263         0.433812     -0.540689      0.246711
O	      6.81832     -0.21606     -4.53325         0.179381      1.310544      0.033801
O	      9.19357      2.00069     -8.91905         0.524580     -0.017522      0.961145
O	      4.40002      6.66738     -0.11010         0.665957     -0.332648     -1.255897
O	      6.69803      8.81137     -4.51475         0.364512     -0.601650     -0.450354
O	     11.23277      6.78817     -6.76325         0.042825     -0.796085      0.935025
O	      6.80560      6.79594     -6.45362         0.001340      0.248077      0.487545
O	     11.33512      4.63835     -8.79809        -0.209908     -0.192380      1.449783
O	      6.64500      9.13883      0.16561         0.502356     -0.079382     -0.563789
O	      8.90580     11.38626     -4.20652        -0.396010     -1.915013     -0.713407
O	     11.16974      6.84482     -2.05260        -0.233330     -0.973869     -0.196290
O	     13.44198      9.10749     -6.45013        -0.244029     -0.541604      0.029050
