# total energy = -589.05277871 eV
 
CRYSTAL
PRIMVEC
4.372101 8.858550 4.354515 
8.859236 -4.481977 -4.375992 
4.434787 4.350248 -8.618194 
PRIMCOORD
92 1
Li	      4.61177      1.89821     -2.26710         0.363643      0.083866      0.116139
Li	      6.96415      4.43032     -6.71632         0.001225     -0.178278      0.317162
Li	      9.18720     -0.38472     -4.51992        -0.125318      0.260366     -0.106312
Li	     11.49597      1.92624     -9.22600        -0.088096      0.063338      0.058776
Li	      6.79236      6.86154     -0.00042         0.021415     -0.072088      0.149185
Li	      9.10284      9.01834     -4.44333         0.101990     -0.470304     -0.222465
Li	     11.53592      4.64604     -2.23409         0.014222      0.486774     -0.266651
Li	     13.62867      6.74951     -6.71105         0.007911     -0.063265      0.000999
Li	      4.52948      0.01321     -4.46307         0.014935      0.202186      0.075466
Li	      6.89471      2.42711     -8.73318        -0.027794     -0.421126     -0.091004
Li	      9.20383     -2.15905     -6.58618        -0.250669      0.149353     -0.426066
Li	     11.49373      0.04340    -11.02984        -0.385979     -0.254704     -0.258590
Li	      6.91816      4.30243     -2.30383        -0.140300     -0.152073      0.108289
Li	      9.18231      6.82929     -6.65253        -0.154536     -0.132631      0.250378
Li	     11.59943      2.49535     -4.23456        -0.418617      0.498820      0.369690
Li	     13.60432      4.24367     -8.95752        -0.163189     -0.120522      0.160783
Li	      6.65187      2.17115     -4.43963        -0.493850     -0.086485     -0.070955
Li	      9.19220      4.50701     -8.87153        -0.086342      0.031278      0.570578
Li	     11.14030     -0.45238     -6.68886        -0.564133      0.069155      0.181178
Li	     13.67265      2.16830    -11.18091        -0.247631      0.003304      0.796106
Li	      9.00116      7.14628     -2.20746        -0.337792     -0.109324     -0.235690
Li	     11.28987      9.00115     -6.51875        -0.213816      0.221518     -0.005002
Li	     13.61531      4.53228     -4.48171        -0.210288      0.048360      0.198994
Li	     15.83874      6.81182     -8.89795        -0.855056     -0.092372      0.539339
Mn	      9.11593      4.52756     -4.49184        -0.006080      1.486696     -1.044255
Mn	      6.82262      2.27704     -0.04974         0.182496      1.494315     -2.812941
Mn	      4.61492      6.91430     -2.19294         1.506022     -0.057076     -0.252316
Mn	      2.36308      4.61689      1.98426         0.308205     -2.876662      1.283205
Mn	      6.81062     -0.07505     -6.64240         0.941139      2.441621      0.813473
Mn	      4.78883     -1.91900     -2.34315        -1.648942     -6.681245      1.329873
Mn	      2.64952      2.34980     -4.40853        -1.844793     -2.592520      0.498954
Mn	      0.11765      0.10508     -0.21710         0.108701      0.065812      2.977433
Mn	      2.34013      2.19176      0.00601         2.942845      0.016601     -0.618432
Mn	      4.59380      4.50667     -4.55452         1.875436     -0.186951     -0.735108
Mn	      6.88862     -0.09342     -2.26420         1.128742      1.753207     -0.342697
Mn	      9.05863      2.18057     -6.75537        -0.809259     -0.339192     -1.089482
Mn	      4.50346      6.82701      2.29962         2.968008     -0.874033     -1.704936
Mn	      6.73591      9.17457     -2.21271         1.241891     -1.522795     -0.553887
Mn	      9.02625      4.58526      0.08486         0.190934      0.432945     -0.424028
Mn	     11.31917      6.83103     -4.42338        -0.470941     -0.394830     -0.117955
Mn	      2.42048      0.23777     -2.10924        -0.232649     -2.727348     -5.343272
Mn	      4.57450      2.22015     -6.65803         1.832520      2.563395      0.698926
Mn	      6.95945     -2.05810     -4.36848        -0.819581     -2.116563     -6.043061
Mn	      9.15264     -0.08789     -8.90623         0.131703      3.086474      0.632302
Mn	      4.59611      4.54145      0.08422         0.860445     -0.076412     -0.859860
Mn	      6.90554      6.80932     -4.42810         0.153367     -0.024060      0.110792
Mn	      9.18569      2.12578     -2.26181        -1.049722     -0.663248      0.549116
Mn	     11.46798      4.62992     -6.71238        -0.494126      0.467893      0.332036
O	      4.74404     -0.21893     -2.26466         0.394245      4.875322      0.035576
O	      6.88048      2.02194     -6.62493         0.363806     -0.206016      0.433105
O	      9.30292     -2.55764     -4.52095        -0.617356      2.603254     -0.007263
O	     11.47144     -0.31255     -8.83039        -0.497187      1.914312      0.656084
O	      6.90653      4.40263     -0.22608         0.255968     -0.527122     -0.220383
O	      9.24174      6.77626     -4.39233         0.019895     -0.673445      0.044779
O	     11.42056      2.00478     -2.27118        -1.184059      1.690227     -0.684061
O	     13.70935      4.52078     -6.71043        -1.382185      0.364343      0.299094
O	      6.88325      2.11702     -2.21118         0.381030      0.580243     -0.032036
O	      9.23493      4.26830     -6.68576         0.279647     -0.859731      0.806481
O	      2.51568      4.16241     -0.02881        -1.214218      1.043585      0.044659
O	     13.54241      2.04828     -8.78969        -0.845720      0.204683      1.249132
O	      8.93512      6.66281      0.15220        -0.119383     -0.099749     -1.351244
O	     11.29088      8.94654     -4.24012        -0.281105     -1.345133     -0.064124
O	     13.54405      4.32133     -2.08564        -1.770850      0.246237     -1.037513
O	     15.81613      6.66838     -6.52226        -1.582998     -0.609622      0.088342
O	      4.61332      2.27868     -4.54641         0.981309      0.584558      0.587462
O	      2.51605      0.22898     -0.39689         0.492367      0.393329      4.846231
O	      9.20039      0.03739     -6.77606         0.386882      0.871951      0.188790
O	      7.04136     -2.09633     -2.68113         0.199943     -0.102992      5.435217
O	      6.85847      7.01588     -2.33500        -0.199206      0.602797     -0.300352
O	      9.15492      9.25408     -6.59081        -0.234690     -0.282578      1.249121
O	     11.34727      4.65053     -4.44376        -0.789759     -0.151819     -0.107847
O	      9.28907      2.70830     -0.35706        -0.487822      0.338339      0.503163
O	      4.43865      2.34913     -0.11630         0.177987      0.068903     -0.196667
O	      6.92437      4.69093     -4.31990         0.644362      0.023367      0.194662
O	      8.98388     -0.06855     -2.33541         0.547823      1.102219     -0.785796
O	      6.64448      7.01300      2.29126        -0.363969      0.345863     -0.758983
O	      8.89092      9.24949     -2.17318        -0.618543     -1.790861     -0.513625
O	     11.14245      4.71828     -0.04761        -0.138878      0.547677     -1.022505
O	     13.42997      6.94287     -4.39560        -0.513862     -1.264385     -0.653113
O	      2.32170      2.07776     -2.33333         0.806603      2.062853      0.352640
O	      4.60194      4.36031     -6.76818         0.557259     -0.584921      0.345998
O	      6.88501     -0.21818     -4.57759         0.175473      1.684579      0.071265
O	      9.28347      2.02026     -9.00628         0.616040      0.039873      1.118663
O	      4.44305      6.73259     -0.11118         0.904655     -0.396843     -1.492679
O	      6.76354      8.89755     -4.55890         0.435268     -0.697061     -0.503190
O	     11.34262      6.85456     -6.82940         0.066009     -0.923064      1.194151
O	      6.87216      6.86240     -6.51674        -0.016160      0.258819      0.536439
O	     11.44598      4.68371     -8.88414        -0.242375     -0.216204      1.745713
O	      6.70998      9.22821      0.16723         0.635707     -0.121636     -0.707611
O	      8.99290     11.49761     -4.24766        -0.443783     -2.288554     -0.892546
O	     11.27898      6.91176     -2.07267        -0.262912     -1.228123     -0.288737
O	     13.57345      9.19656     -6.51322        -0.273550     -0.718642      0.099300
