# total energy = -584.94206593 eV
 
CRYSTAL
PRIMVEC
4.393325 8.901553 4.375653 
8.902242 -4.503734 -4.397235 
4.456315 4.371365 -8.660030 
PRIMCOORD
92 1
Li	      4.65665      1.91668     -2.28916         0.415234      0.118046      0.129467
Li	      7.03192      4.47344     -6.78168         0.002266     -0.199538      0.387227
Li	      9.27661     -0.38847     -4.56391        -0.133476      0.337410     -0.120548
Li	     11.60785      1.94498     -9.31579        -0.106197      0.084437      0.083099
Li	      6.85847      6.92832     -0.00043         0.019764     -0.078254      0.164641
Li	      9.19143      9.10610     -4.48658         0.119955     -0.541693     -0.253698
Li	     11.64819      4.69124     -2.25584        -0.030703      0.544015     -0.328608
Li	     13.76131      6.81519     -6.77637        -0.016763     -0.064916     -0.017082
Li	      4.57357      0.01333     -4.50651         0.002058      0.230857      0.076774
Li	      6.98314      2.49394     -8.79694        -0.047046     -0.503659     -0.089822
Li	      9.31473     -2.13685     -6.62904        -0.341840      0.164713     -0.477778
Li	     11.62691      0.08703    -11.11595        -0.486128     -0.301360     -0.290651
Li	      6.98549      4.34431     -2.32625        -0.129546     -0.173070      0.111215
Li	      9.27167      6.89574     -6.71728        -0.183537     -0.161910      0.290620
Li	     11.71231      2.51963     -4.27577        -0.674736      0.585682      0.430263
Li	     13.73672      4.28498     -9.04469        -0.205502     -0.142383      0.194272
Li	      6.71661      2.19228     -4.48283        -0.501707     -0.080581     -0.066111
Li	      9.28166      4.55088     -8.95787        -0.088442      0.035652      0.680441
Li	     11.24871     -0.45679     -6.75396        -0.636642      0.084111      0.225919
Li	     13.80571      2.18941    -11.28973        -0.322414     -0.003271      0.972612
Li	      9.08876      7.21582     -2.22895        -0.389639     -0.144651     -0.268500
Li	     11.39975      9.08875     -6.58219        -0.253419      0.251487     -0.004187
Li	     13.74782      4.57639     -4.52533        -0.260018      0.051199      0.244185
Li	     15.99288      6.87811     -8.98454        -1.035371     -0.109968      0.654571
Mn	      9.20464      4.57162     -4.53555        -0.005953      1.587921     -1.131776
Mn	      6.88902      2.29920     -0.05022         0.156448      1.656034     -3.313243
Mn	      4.65984      6.98159     -2.21428         1.711509     -0.050441     -0.202825
Mn	      2.40771      4.68306      1.96154         0.306956     -3.340580      1.391449
Mn	      6.87690     -0.07578     -6.70705         1.058895      2.822524      0.891090
Mn	      4.87840     -1.87323     -2.38675        -1.694245     -8.552975      1.449961
Mn	      2.73984      2.39402     -4.45153        -2.196555     -3.147688      0.631820
Mn	      0.14042      0.12732     -0.26126         0.000643      0.137329      3.423437
Mn	      2.36289      2.21308      0.00607         3.445027      0.084133     -0.708182
Mn	      4.63850      4.55054     -4.59884         2.212409     -0.118057     -0.840267
Mn	      6.95566     -0.09433     -2.28624         1.359239      2.017146     -0.384451
Mn	      9.14680      2.20180     -6.82111        -0.867426     -0.356604     -1.169816
Mn	      4.54729      6.89345      2.32200         3.410801     -1.052842     -2.017880
Mn	      6.80147      9.26386     -2.23425         1.502133     -1.758627     -0.598443
Mn	      9.11411      4.62989      0.08568         0.237445      0.424233     -0.562183
Mn	     11.42933      6.89751     -4.46643        -0.579726     -0.485929     -0.131891
Mn	      2.46537      0.28330     -2.10853        -0.312543     -3.120671     -6.946135
Mn	      4.61902      2.24175     -6.72283         2.127211      2.909362      0.688899
Mn	      7.04851     -2.03492     -4.38976        -0.952108     -2.465280     -7.918249
Mn	      9.24171     -0.08874     -8.99290         0.139387      3.690323      0.703830
Mn	      4.64083      4.58565      0.08505         0.967867     -0.099383     -1.002464
Mn	      6.97274      6.87559     -4.47119         0.188270     -0.059068      0.126778
Mn	      9.27509      2.14647     -2.28382        -1.188051     -0.698153      0.556739
Mn	     11.57958      4.67497     -6.77771        -0.580572      0.494062      0.400694
O	      4.79021     -0.22106     -2.28671         0.249356      6.524607      0.146593
O	      6.94744      2.04161     -6.68941         0.236795     -0.177809      0.472385
O	      9.39346     -2.58252     -4.56495        -0.750830      3.117287     -0.001817
O	     11.58309     -0.31559     -8.91633        -0.621399      2.394949      0.708011
O	      6.97374      4.44547     -0.22828         0.277402     -0.578547     -0.244022
O	      9.33167      6.84221     -4.43509         0.015618     -0.704320      0.055836
O	     11.53171      2.02429     -2.29329        -1.343919      2.005391     -0.733765
O	     13.84278      4.56478     -6.77574        -1.719133      0.394949      0.329166
O	      6.95023      2.13762     -2.23269         0.381303      0.596042     -0.048614
O	      9.32481      4.30985     -6.75083         0.326056     -0.969829      0.863012
O	      2.58338      4.18106     -0.05044        -1.358642      1.198716      0.046854
O	     13.67422      2.06822     -8.87523        -0.977936      0.218225      1.331207
O	      9.02208      6.72766      0.15368        -0.173477     -0.041876     -1.613225
O	     11.40077      9.03361     -4.28140        -0.291338     -1.542834     -0.057889
O	     13.67586      4.36339     -2.10593        -1.952782      0.282907     -1.293420
O	     15.97005      6.73328     -6.58574        -1.731864     -0.687934     -0.028183
O	      4.65821      2.30086     -4.59065         1.189834      0.667505      0.800187
O	      2.56217      0.25242     -0.44279         0.658652      0.393381      6.397452
O	      9.28993      0.03776     -6.84200         0.432336      0.998874      0.215672
O	      7.13153     -2.09552     -2.74928         0.291010     -0.108887      7.257701
O	      6.92522      7.08416     -2.35773        -0.214056      0.660472     -0.327823
O	      9.24402      9.34414     -6.65496        -0.237258     -0.314030      1.431184
O	     11.45770      4.69579     -4.48701        -0.853304     -0.131673     -0.156013
O	      9.40110      2.75588     -0.40257        -0.517799      0.420216      0.595855
O	      4.48185      2.37199     -0.11743         0.257965      0.045884     -0.233678
O	      6.99175      4.73658     -4.36194         0.720412      0.016663      0.213292
O	      9.07132     -0.06922     -2.35815         0.591707      1.212448     -0.921219
O	      6.70915      7.08125      2.31356        -0.410907      0.333002     -0.884121
O	      8.97745      9.33951     -2.19433        -0.672172     -2.234189     -0.511341
O	     11.25089      4.76421     -0.04808        -0.138719      0.570251     -1.192332
O	     13.56068      7.01044     -4.43838        -0.508504     -1.622283     -0.737981
O	      2.34429      2.09798     -2.35604         0.936104      2.427101      0.473565
O	      4.64674      4.40275     -6.83405         0.699662     -0.553242      0.454145
O	      6.95201     -0.22030     -4.62214         0.147691      2.092265      0.117145
O	      9.37383      2.03992     -9.09393         0.695381      0.113684      1.254394
O	      4.48630      6.79811     -0.11227         1.191285     -0.455349     -1.712503
O	      6.82936      8.98414     -4.60327         0.502813     -0.775028     -0.551792
O	     11.45301      6.92127     -6.89586         0.095571     -1.029612      1.486665
O	      6.93905      6.92919     -6.58016        -0.027713      0.250284      0.579470
O	     11.55738      4.72929     -8.97060        -0.273871     -0.237557      2.031025
O	      6.77529      9.31802      0.16885         0.768407     -0.182020     -0.857616
O	      9.08042     11.60952     -4.28900        -0.480338     -2.679375     -1.005803
O	     11.38875      6.97902     -2.09284        -0.280212     -1.500973     -0.391631
O	     13.70555      9.28606     -6.57660        -0.292400     -0.906856      0.178761
