# total energy = -91.57660359 eV
 
CRYSTAL
PRIMVEC
0.000242 2.084055 2.081873 
4.082492 -4.192943 4.189046 
4.081748 4.193374 -4.188404 
PRIMCOORD
16 1
Li	      2.06939      2.04453      0.02162         0.007765      0.000226      0.019151
Li	      2.11473      0.01210      2.06686        -0.004440     -0.003363      0.001385
Li	      3.95545      1.97871      2.18012        -0.051625      0.005186     -0.009412
Li	      6.08798      2.11299     -0.02081        -0.013752     -0.004533     -0.006174
Mn	      0.06943      2.13086      2.02591         0.085888      0.023674     -0.010670
Mn	      4.15271      2.07010     -2.06261         0.118334     -0.030194      0.013239
Ni	      4.00872      0.01228      4.14831        -0.039189     -0.060495      0.062599
Ni	      6.09007      0.00762      2.07273        -0.000115      0.036414     -0.035750
O	      6.01311      2.08116     -2.07392        -0.138127     -0.005783      0.000316
O	      6.27712      2.01360      2.14655         0.045209      0.074783     -0.077114
O	      4.06618     -2.12114      4.19111         0.006755     -0.055694      0.070714
O	      2.14756      2.18423     -2.17866         0.065925     -0.072214      0.077081
O	      4.11189      4.14432     -2.05774         0.082456     -0.041143      0.042757
O	      1.90811      2.10898      2.04566        -0.053210      0.005361      0.005661
O	      4.06820      2.23538     -0.14320        -0.003726      0.025286     -0.045156
O	      4.09133     -0.07597      2.15458        -0.108148      0.102487     -0.108628
