# total energy = -574.48699872 eV
 
CRYSTAL
PRIMVEC
4.435772 8.987558 4.417930 
8.988254 -4.547248 -4.439720 
4.499371 4.413601 -8.743701 
PRIMCOORD
92 1
Li	      4.74707      1.95389     -2.33361         0.519820      0.196273      0.159427
Li	      7.16846      4.56029     -6.91336         0.012142     -0.237342      0.557342
Li	      9.45673     -0.39600     -4.65253        -0.148210      0.506966     -0.153442
Li	     11.83324      1.98275     -9.49668        -0.148237      0.127538      0.157447
Li	      6.99163      7.06284     -0.00043         0.007476     -0.087841      0.170697
Li	      9.36990      9.28292     -4.57370         0.160248     -0.699134     -0.297103
Li	     11.87436      4.78234     -2.29964        -0.153156      0.658236     -0.474261
Li	     14.02851      6.94753     -6.90795        -0.064131     -0.071356     -0.057885
Li	      4.66237      0.01360     -4.59401        -0.032722      0.287344      0.044126
Li	      7.16159      2.62920     -8.92506        -0.055661     -0.695709     -0.037121
Li	      9.53846     -2.09150     -6.71507        -0.620462      0.216891     -0.567754
Li	     11.89552      0.17556    -11.28909        -0.767017     -0.395283     -0.341683
Li	      7.12112      4.42866     -2.37143        -0.105265     -0.205657      0.106197
Li	      9.45171      7.02964     -6.84772        -0.250025     -0.228103      0.385011
Li	     11.93974      2.56856     -4.35880        -1.361465      0.755957      0.541886
Li	     14.00345      4.36818     -9.22032        -0.296780     -0.181149      0.262680
Li	      6.84703      2.23484     -4.56988        -0.489518     -0.065283     -0.063465
Li	      9.46189      4.63924     -9.13181        -0.060919      0.045515      0.918794
Li	     11.46714     -0.46565     -6.88510        -0.786465      0.135784      0.319699
Li	     14.07378      2.23191    -11.50895        -0.520166     -0.008655      1.387091
Li	      9.26524      7.35594     -2.27222        -0.489412     -0.205702     -0.339030
Li	     11.62110      9.26524     -6.71000        -0.334088      0.278266      0.013333
Li	     14.01476      4.66525     -4.61320        -0.364153      0.053174      0.319672
Li	     16.30343      7.01166     -9.15900        -1.487142     -0.166661      0.921047
Mn	      9.38337      4.66039     -4.62363        -0.014464      1.737437     -1.278064
Mn	      7.02279      2.34385     -0.05120         0.056218      1.889131     -4.317992
Mn	      4.75031      7.11715     -2.25728         2.079382     -0.016552     -0.069820
Mn	      2.49793      4.81662      1.91514         0.233374     -4.290918      1.529019
Mn	      7.01043     -0.07725     -6.83728         1.236568      3.645404      0.978525
Mn	      5.05945     -1.78013     -2.47490        -1.307870    -13.211604      1.432413
Mn	      2.92275      2.48340     -4.53818        -3.140904     -4.454285      0.890745
Mn	      0.18662      0.17244     -0.35081        -0.399129      0.502042      4.277310
Mn	      2.40878      2.25606      0.00618         4.470015      0.343721     -0.782615
Mn	      4.72857      4.63889     -4.68814         2.889550      0.140150     -1.026965
Mn	      7.09072     -0.09616     -2.33064         1.877397      2.534822     -0.439094
Mn	      9.32439      2.24455     -6.95355        -0.953295     -0.386775     -1.286929
Mn	      4.63558      7.02730      2.36709         4.215742     -1.476060     -2.678254
Mn	      6.93353      9.44375     -2.27763         2.102623     -2.170958     -0.628738
Mn	      9.29107      4.71979      0.08735         0.315091      0.333114     -0.852903
Mn	     11.65126      7.03145     -4.55315        -0.770906     -0.660029     -0.163416
Mn	      2.55609      0.37563     -2.10678        -0.604890     -3.660204    -11.223278
Mn	      4.70871      2.28529     -6.85336         2.881054      3.814242      0.444228
Mn	      7.22823     -1.98760     -4.43231        -1.235441     -2.950393    -13.038374
Mn	      9.42115     -0.09047     -9.16751         0.127494      4.951574      0.811056
Mn	      4.73094      4.67469      0.08670         1.143431     -0.163062     -1.284821
Mn	      7.10814      7.00910     -4.55800         0.253939     -0.159691      0.155941
Mn	      9.45518      2.18814     -2.32817        -1.444935     -0.755347      0.568104
Mn	     11.80442      4.76575     -6.90931        -0.736471      0.511690      0.532289
O	      4.88321     -0.22535     -2.33111        -0.530179     10.808272      0.625245
O	      7.08235      2.08126     -6.81930         0.032182     -0.092451      0.536904
O	      9.57586     -2.63267     -4.65359        -1.055594      4.107648     -0.008494
O	     11.80801     -0.32172     -9.08946        -0.941717      3.564853      0.740205
O	      7.10915      4.53179     -0.23271         0.295206     -0.636119     -0.283695
O	      9.51287      6.97507     -4.52120        -0.007092     -0.736826      0.077261
O	     11.75562      2.06359     -2.33782        -1.593844      2.719848     -0.774309
O	     14.11156      4.65342     -6.90730        -2.464664      0.414733      0.379435
O	      7.08519      2.17912     -2.27605         0.326506      0.602991     -0.116573
O	      9.50586      4.39353     -6.88191         0.404622     -1.128143      0.925065
O	      2.72038      4.21831     -0.09432        -1.606068      1.534390      0.017330
O	     13.93972      2.10838     -9.04757        -1.199674      0.206636      1.416101
O	      9.19726      6.85829      0.15666        -0.324258      0.129571     -2.106059
O	     11.62213      9.20901     -4.36453        -0.307015     -1.909845     -0.066838
O	      4.95316      8.99537      2.29290        -2.099141      0.376863     -1.813555
O	     16.28015      6.86402     -6.71361        -2.236500     -0.783866     -0.234750
O	      4.74866      2.34554     -4.67978         1.920103      0.753867      1.014163
O	      2.65539      0.29997     -0.53586         1.102981      0.145595     10.532628
O	      9.47031      0.03849     -6.97485         0.525940      1.191125      0.275731
O	      7.31347     -2.09356     -2.88713         0.547207     -0.346668     12.299554
O	      7.05968      7.22172     -2.40350        -0.231037      0.734843     -0.346470
O	      4.92414      5.11198      1.95952        -0.190009     -0.343274      1.771715
O	     11.68017      4.78697     -4.57414        -0.954586     -0.083696     -0.252469
O	      9.62712      2.85204     -0.49487        -0.546567      0.574153      0.746328
O	      4.56887      2.41805     -0.11971         0.460592     -0.030076     -0.331289
O	      7.12752      4.82855     -4.44664         0.864146     -0.014201      0.246800
O	      9.24746     -0.07057     -2.40393         0.639070      1.376933     -1.198006
O	      6.83942      7.21875      2.35848        -0.485752      0.284937     -1.097311
O	      9.15176      9.52086     -2.23694        -0.754263     -3.456029     -0.399252
O	     11.46935      4.85671     -0.04901        -0.088374      0.560750     -1.542235
O	     13.82399      7.14656     -4.52456        -0.493942     -2.482749     -0.863868
O	      2.38981      2.13871     -2.40179         1.254345      3.077664      0.686893
O	      4.73695      4.48823     -6.96674         1.101638     -0.355112      0.639409
O	      7.08699     -0.22458     -4.71188         0.050601      2.997852      0.225108
O	      9.55584      2.07953     -9.27052         0.831910      0.314766      1.469355
O	      4.57341      6.93011     -0.11445         1.948174     -0.559328     -2.090341
O	      6.96197      9.15858     -4.69265         0.656012     -0.875595     -0.621851
O	     11.67540      7.05566     -7.02976         0.193922     -1.183137      2.155283
O	      7.07377      7.06373     -6.70793        -0.072214      0.186148      0.625175
O	     11.78178      4.82111     -9.14479        -0.334889     -0.267962      2.573189
O	      6.90684      9.49895      0.17214         1.028487     -0.357135     -1.140435
O	      9.25674     11.83494     -4.37228        -0.501885     -3.647751     -0.915283
O	     11.60988      7.11454     -2.13348        -0.280688     -2.133646     -0.618029
O	     13.97167      9.46638     -6.70430        -0.321951     -1.302346      0.361164
