# total energy = -568.02724725 eV
 
CRYSTAL
PRIMVEC
4.456996 9.030561 4.439068 
9.031260 -4.569005 -4.460963 
4.520899 4.434718 -8.785537 
PRIMCOORD
92 1
Li	      4.79261      1.97264     -2.35600         0.579187      0.247748      0.171188
Li	      7.23723      4.60404     -6.97968         0.019901     -0.258784      0.657198
Li	      9.54744     -0.39980     -4.69715        -0.150095      0.594215     -0.174132
Li	     11.94675      2.00177     -9.58777        -0.173992      0.152984      0.202547
Li	      7.05871      7.13059     -0.00043        -0.004461     -0.091206      0.169729
Li	      9.45977      9.37196     -4.61756         0.182625     -0.779466     -0.310514
Li	     11.98826      4.82821     -2.32169        -0.236366      0.709952     -0.556663
Li	     14.16308      7.01417     -6.97421        -0.077941     -0.076362     -0.081427
Li	      4.70710      0.01373     -4.63808        -0.052542      0.317269      0.017307
Li	      7.25161      2.69762     -8.98943        -0.053401     -0.809725      0.015443
Li	      9.65128     -2.06836     -6.75824        -0.826190      0.261382     -0.607366
Li	     12.03095      0.22045    -11.37614        -0.962981     -0.444954     -0.353532
Li	      7.18943      4.47114     -2.39418        -0.090317     -0.218449      0.101185
Li	      9.54237      7.09707     -6.91340        -0.282501     -0.265164      0.431832
Li	     12.05427      2.59319     -4.40061        -1.807510      0.828619      0.593037
Li	     14.13778      4.41008     -9.30876        -0.351182     -0.201187      0.313605
Li	      6.91270      2.25629     -4.61371        -0.472720     -0.050475     -0.074784
Li	      9.55264      4.68374     -9.21940        -0.031888      0.054012      1.049919
Li	     11.57713     -0.47013     -6.95114        -0.856565      0.175943      0.368648
Li	     14.20878      2.25333    -11.61934        -0.644870     -0.005807      1.629382
Li	      9.35411      7.42650     -2.29402        -0.541851     -0.232273     -0.376089
Li	     11.73257      9.35411     -6.77436        -0.374695      0.282893      0.023085
Li	     14.14920      4.71000     -4.65745        -0.417128      0.051744      0.352745
Li	     16.45981      7.07892     -9.24686        -1.754192     -0.201908      1.085177
Mn	      9.47338      4.70509     -4.66797        -0.024142      1.794957     -1.338964
Mn	      7.09016      2.36633     -0.05170        -0.019799      1.960422     -4.816010
Mn	      4.79588      7.18542     -2.27892         2.239681      0.005556      0.010547
Mn	      2.54353      4.88405      1.89148         0.165618     -4.779104      1.553629
Mn	      7.07767     -0.07799     -6.90286         1.296297      4.103636      0.983175
Mn	      5.15094     -1.73278     -2.51942        -0.816895    -16.031288      1.208326
Mn	      3.01532      2.52857     -4.58182        -3.803910     -5.195455      1.003016
Mn	      0.21005      0.19531     -0.39621        -0.713832      0.756544      4.649998
Mn	      2.43189      2.27770      0.00624         4.989839      0.547503     -0.749503
Mn	      4.77392      4.68339     -4.73311         3.241427      0.324584     -1.099955
Mn	      7.15874     -0.09709     -2.35299         2.175109      2.807837     -0.440356
Mn	      9.41384      2.26609     -7.02026        -1.000219     -0.403334     -1.326248
Mn	      4.68005      7.09471      2.38979         4.595512     -1.704689     -3.024296
Mn	      7.00004      9.53433     -2.29948         2.435018     -2.318416     -0.620032
Mn	      9.38019      4.76506      0.08819         0.347446      0.247049     -0.981432
Mn	     11.76302      7.09889     -4.59683        -0.857275     -0.738352     -0.177516
Mn	      2.60193      0.42244     -2.10575        -0.857806     -3.726169    -14.043186
Mn	      4.75388      2.30721     -6.91910         3.470664      4.377977      0.224880
Mn	      7.31888     -1.96345     -4.45358        -1.403551     -2.990815    -16.482999
Mn	      9.51153     -0.09134     -9.25545         0.107496      5.599688      0.834629
Mn	      4.77632      4.71953      0.08753         1.211442     -0.200811     -1.417033
Mn	      7.17632      7.07634     -4.60173         0.289379     -0.222016      0.165008
Mn	      9.54587      2.20914     -2.35049        -1.558182     -0.767137      0.577927
Mn	     11.91765      4.81147     -6.97558        -0.803203      0.506862      0.594610
O	      4.93006     -0.22751     -2.35347        -1.240819     13.481166      1.052117
O	      7.15028      2.10121     -6.88471         0.028379     -0.053705      0.562184
O	      9.66770     -2.65792     -4.69822        -1.238795      4.567942     -0.020238
O	     11.92127     -0.32481     -9.17665        -1.150362      4.236859      0.711502
O	      7.17734      4.57527     -0.23494         0.299616     -0.654730     -0.305088
O	      9.60412      7.04198     -4.56457        -0.009414     -0.739310      0.089768
O	     11.86839      2.08339     -2.36025        -1.689964      3.105204     -0.768419
O	     14.24693      4.69806     -6.97356        -2.880291      0.398416      0.390629
O	      7.15315      2.20003     -2.29788         0.280017      0.588553     -0.160922
O	      9.59705      4.43568     -6.94793         0.441298     -1.187418      0.945941
O	      2.78969      4.23691     -0.11656        -1.701075      1.727436     -0.015292
O	      5.04218      6.69761     -4.67339        -1.305198      0.196606      1.429866
O	      9.28549      6.92408      0.15816        -0.410285      0.250756     -2.322905
O	     11.73362      9.29734     -4.40639        -0.302745     -2.082954     -0.083228
O	      5.04388      9.05979      2.29356        -2.060981      0.433860     -2.077065
O	      7.40505     11.49887     -2.31705        -2.807096     -0.794681     -0.254338
O	      4.79422      2.36804     -4.72468         2.525774      0.728968      1.051732
O	      2.70250      0.32407     -0.58305         1.407944     -0.179565     13.254319
O	      9.56115      0.03886     -7.04175         0.581458      1.263832      0.307833
O	      7.40526     -2.09243     -2.95687         0.752238     -0.666019     15.713758
O	      7.12740      7.29099     -2.42656        -0.236334      0.756706     -0.334543
O	      4.99300      5.18224      1.93629        -0.142110     -0.352065      1.918507
O	     11.79221      4.83288     -4.61801        -0.991034     -0.052558     -0.295697
O	      9.74109      2.90062     -0.54166        -0.548043      0.636127      0.781235
O	      4.61270      2.44124     -0.12086         0.590346     -0.095749     -0.396307
O	      7.19589      4.87487     -4.48929         0.938083     -0.053208      0.271746
O	      9.33616     -0.07125     -2.42699         0.620589      1.431205     -1.333721
O	      6.90502      7.28799      2.38110        -0.497985      0.247850     -1.198095
O	      9.23954      9.61219     -2.25838        -0.763149     -4.163066     -0.306768
O	     11.57937      4.90330     -0.04949        -0.052818      0.532327     -1.713275
O	     13.95659      7.21511     -4.56797        -0.500985     -2.976211     -0.885074
O	      2.41273      2.15923     -2.42482         1.450553      3.318158      0.749504
O	      4.78240      4.53129     -7.03357         1.367105     -0.259199      0.734682
O	      7.15498     -0.22674     -4.75708        -0.027654      3.471709      0.289941
O	      9.64750      2.09948     -9.35943         0.891001      0.434415      1.545651
O	      4.61728      6.99658     -0.11554         2.435180     -0.604931     -2.264098
O	      7.02875      9.24644     -4.73767         0.731274     -0.887254     -0.661958
O	     11.78739      7.12335     -7.09719         0.260167     -1.225938      2.521451
O	      7.14164      7.13149     -6.77228        -0.098666      0.130770      0.639869
O	     11.89480      4.86736     -9.23251        -0.362638     -0.282606      2.811379
O	      6.97309      9.59007      0.17378         1.153045     -0.446686     -1.271214
O	      9.34553     11.94846     -4.41422        -0.472007     -4.209616     -0.759453
O	     11.72125      7.18278     -2.15395        -0.256874     -2.481980     -0.732916
O	     14.10570      9.55718     -6.76861        -0.331184     -1.485446      0.451270
