# total energy = -599.61366737 eV
 
CRYSTAL
PRIMVEC
4.236330 8.549131 4.218140 
8.624613 -4.353149 -4.224257 
4.298517 4.177884 -8.309802 
PRIMCOORD
92 1
Li	      4.35194      1.77256     -2.10438        -0.005595      0.014793      0.016604
Li	      6.54417      4.10372     -6.29710        -0.007509      0.002804     -0.000896
Li	      8.67062     -0.41632     -4.23129        -0.008853      0.003552      0.007903
Li	     10.84351      1.92473     -8.39927        -0.001797     -0.003410      0.014666
Li	      6.57033      6.38973      0.01094        -0.005574      0.009622      0.006595
Li	      8.56011      8.40985     -4.16771        -0.006362     -0.021062     -0.016538
Li	     10.87226      4.20831     -2.12829        -0.015455      0.006890     -0.021894
Li	     12.87352      6.24830     -6.25633         0.014756      0.007067      0.005873
Li	      4.30804     -0.05835     -4.17738        -0.000573     -0.005865      0.002485
Li	     10.69280     10.57419     -4.11214         0.000345      0.004474     -0.003225
Li	     12.85550      6.31388     -2.07111         0.002834     -0.008727      0.003416
Li	     15.00444      8.39810     -6.22503         0.001515      0.003765     -0.002912
Li	      6.42951      4.20873     -2.06831        -0.005449     -0.001296     -0.002578
Li	      8.57522      6.29354     -6.22348        -0.002142      0.011565     -0.002405
Li	     10.74017      2.03604     -4.17906        -0.000138     -0.001672     -0.007583
Li	     12.88672      4.11758     -8.33543        -0.001599      0.007193     -0.001389
Li	      6.28115      2.03526     -4.14899         0.007450     -0.008800      0.000371
Li	      8.58988      4.19640     -8.27644         0.004027      0.018681      0.010436
Li	     10.60131     -0.13672     -6.23178         0.022795     -0.007179      0.026018
Li	     12.90026      2.00169    -10.41344        -0.011222     -0.008818     -0.009713
Li	      8.50022      6.65357     -2.03142         0.003085     -0.012453     -0.016157
Li	     10.60813      8.50242     -6.14618         0.001396     -0.003986     -0.002268
Li	     12.80509      4.48802     -4.12910         0.013145     -0.000918     -0.003238
Li	     14.93121      6.32671     -8.26821        -0.000750      0.002473     -0.017846
Mn	      8.50735      4.25432     -4.15866        -0.005499     -0.048736      0.029054
Mn	     10.72772      6.22245     -8.31416        -0.010578     -0.027881      0.004903
Mn	     12.85089      2.06490     -6.25009         0.006497     -0.043419      0.041982
Mn	      6.39659      8.40319     -6.21896        -0.015767     -0.002623     -0.005217
Mn	      6.45509     -0.08457     -6.23578         0.003888      0.016224      0.002540
Mn	     12.82389     10.52718     -6.18676         0.010125      0.003408      0.011533
Mn	      2.14761      2.08709     -4.11863         0.009054      0.008378      0.011374
Mn	     12.84425      4.19585     -0.00416        -0.003440     -0.010112     -0.008637
Mn	      2.20582      2.04728     -0.01016         0.000828      0.006816      0.003661
Mn	      4.30931      4.20770     -4.20244         0.020148      0.017575      0.047836
Mn	      6.51871     -0.13814     -2.11629        -0.000433      0.011128      0.023769
Mn	      8.63130      2.04045     -6.33812         0.022927      0.020065      0.051102
Mn	      4.22052      6.38667      2.20240        -0.015606     -0.012454     -0.048549
Mn	      6.33267      8.56436     -2.02018        -0.005750     -0.009775     -0.016646
Mn	      8.54204      4.21911      0.06613        -0.009192     -0.024483     -0.045155
Mn	     10.64544      6.38020     -4.12617         0.001660     -0.023118     -0.010476
Mn	      6.39719      8.50939      2.10005        -0.013638     -0.008888      0.008843
Mn	      4.32551      2.07661     -6.25796        -0.004301      0.004188     -0.010588
Mn	     10.70166      6.33880     -0.01689         0.003440     -0.017191     -0.002532
Mn	      8.63175     -0.12319     -8.35458         0.003646      0.014229     -0.006957
Mn	      4.34717      4.17261      0.02555        -0.005130      0.044794     -0.035170
Mn	      6.42532      6.38210     -4.13149        -0.004260      0.003913     -0.010443
Mn	      8.62720      2.00769     -2.10788        -0.017379      0.036850     -0.037047
Mn	     10.75554      4.20103     -6.22651         0.010014     -0.007356     -0.002764
O	      4.50346     -0.22677     -2.13802         0.014043     -0.013587     -0.002698
O	      6.50630      1.86141     -6.19688        -0.049597      0.011464     -0.013834
O	      8.79989     -2.39999     -4.22571         0.006785     -0.005301     -0.005606
O	     10.94817     -0.28451     -8.31301        -0.010056      0.018507      0.006418
O	      6.50677      4.05725     -0.10080         0.057902      0.014729      0.034648
O	      8.66687      6.32648     -4.03788         0.004481      0.011097     -0.000870
O	     10.66640      1.86801     -2.26258        -0.012331     -0.005546      0.020229
O	     12.99647      4.16906     -6.19758         0.021031      0.023464     -0.000720
O	      6.50071      1.89982     -2.01573        -0.010348      0.002254     -0.003380
O	      8.55437      4.06425     -6.20828        -0.003893      0.052097     -0.045752
O	     10.77354     -0.30321     -4.14255        -0.018211      0.014632      0.017971
O	     12.84902      1.76671     -8.33621        -0.019324      0.002743     -0.049407
O	      8.48203      6.18564      0.09156        -0.010727      0.012427      0.008299
O	     10.62790      8.35461     -3.99386        -0.009911      0.033873     -0.015769
O	     12.78924      4.12378     -1.97436         0.001305      0.059509     -0.008627
O	     14.94301      6.19400     -6.08656        -0.001250      0.035957     -0.003926
O	      4.36940      2.24185     -4.22551         0.011479     -0.027586     -0.019448
O	      6.52263      4.24983     -8.45076         0.008368     -0.029968      0.012471
O	      8.68601     -0.05190     -6.38359         0.002383     -0.061779     -0.001774
O	     10.83179      2.05682    -10.58246        -0.007539     -0.032898     -0.000028
O	      6.35139      6.52752     -2.12047         0.019797     -0.005630      0.010484
O	      8.59722      8.54312     -6.23700        -0.001888     -0.052535      0.058705
O	     10.70215      4.37605     -4.21835         0.026817     -0.005312     -0.006351
O	     12.92622      6.48412     -8.33203         0.019175      0.014547      0.040298
O	      4.18505      2.10168     -0.09984        -0.005758     -0.024068      0.008546
O	      6.34504      4.36918     -4.03568        -0.048292     -0.013862     -0.033739
O	      8.47865     -0.09716     -2.16313        -0.008562     -0.014630      0.006095
O	     10.80983      2.20602     -6.09727         0.014164     -0.000873     -0.018648
O	      6.34680      6.56282      2.06227         0.041131      0.000305      0.011953
O	      8.34769      8.65363     -1.99833        -0.009607      0.002382      0.008354
O	     10.52851      4.35703     -0.04565        -0.005522     -0.011078     -0.008823
O	     12.67600      6.47300     -4.13511        -0.010439      0.007271      0.014480
O	      2.20977      1.95570     -2.18785        -0.001194      0.009212     -0.030104
O	      4.34561      4.05104     -6.35396        -0.013621      0.000850      0.007884
O	      6.51057     -0.22041     -4.29415        -0.006371      0.022711     -0.026520
O	      8.70049      1.85437     -8.44473         0.011493     -0.006965     -0.033717
O	      6.35136      8.35346     -4.23842         0.003067     -0.008103     -0.041604
O	     10.68648      6.17416     -6.35435         0.005863      0.001150     -0.006151
O	      6.46561      6.42941     -6.09299        -0.010004      0.006555      0.022666
O	     10.79932      4.24945     -8.20639        -0.002261      0.014055      0.026664
O	      6.33924      8.64586      0.15799         0.008078     -0.020887      0.027868
O	      8.44868     10.74761     -3.99901        -0.007465      0.019391      0.018854
O	     10.63972      6.46959     -1.94817         0.005320     -0.008820      0.029154
O	     12.80259      8.55323     -6.09144         0.021906     -0.001980      0.003315
