# total energy = -574.36528182 eV
 
CRYSTAL
PRIMVEC
4.038574 8.064002 4.018594 
8.180018 -4.084165 -4.027149 
4.081894 3.974121 -7.967525 
PRIMCOORD
93 1
Li	      4.01599      1.83993     -2.16670        -1.181989     -0.033312      0.892437
Li	      5.85829      3.78208     -5.71560        -0.630709      0.218168     -0.796029
Li	      7.78772     -0.03823     -3.76885         0.163933     -1.356775     -0.478348
Li	      9.72407      1.78196     -7.62416        -0.134735      0.396980     -0.793612
Li	      5.81289      5.48640      0.01885        -0.161789      0.563006     -0.317022
Li	      7.78123      7.63515     -3.79336        -0.265430      0.769340     -0.045652
Li	      9.68436      3.70627     -1.86913         1.093722     -0.535722      0.033203
Li	     11.68944      5.63681     -5.69322         0.379584      0.623309      0.137037
Li	      4.02499     -0.06160     -3.81611        -0.781989      0.064418     -0.538603
Li	      9.64458      9.49606     -3.74589         0.585322      0.697962     -0.175805
Li	     11.45604      5.62091     -1.86312         1.381538     -0.568685      0.942167
Li	      9.70304      0.02339     -9.50174        -0.063756     -0.680221     -0.496871
Li	      5.75359      3.69929     -1.91792        -0.136866      0.335307      0.492206
Li	      7.76993      5.76912     -5.47042        -0.199887      0.213674     -1.452843
Li	      9.73537      1.87651     -3.78043         0.062490     -0.804180      0.599798
Li	     11.66727      3.71340     -7.63999         0.203016      0.212454     -0.349696
Li	      5.81269      1.89206     -3.84203        -0.284526     -0.476915      0.193266
Li	      7.67765      3.54215     -7.58161         0.100464      0.107311     -0.533049
Li	      9.70312      0.16540     -5.68831         0.397455     -0.920847      0.403658
Li	     11.54606      1.84951     -9.50639         0.582473     -0.089109     -0.953627
Li	      7.69149      5.69163     -1.87935        -0.016022      0.233134      0.549738
Li	      9.63292      7.61907     -5.63128         1.002255      0.252350     -0.163725
Li	     11.45884      3.68787     -3.78743         1.788968      0.441936      0.539641
Li	     13.53994      5.69837     -7.57793         0.634586      0.141190     -0.134166
Mn	      7.71891      3.74471     -3.75285        -0.691323      0.334090     -0.331778
Mn	      9.74207      5.64834     -7.56579         0.205876      3.586619     -4.678312
Mn	     11.63483      1.85978     -5.68848         0.056809     -2.125360     -6.128047
Mn	      5.81547      7.60420     -5.65658        -1.598796      4.755915     -4.419096
Mn	      9.64576      7.58341     -1.84067         1.035962      5.672636      3.429891
Mn	      7.64166      5.67970      1.88761         0.133472      0.976914      6.146495
Mn	      9.64333     -1.91931     -7.59168        -0.186157     -3.509956     -1.218745
Mn	      7.70586     11.40746     -3.72724         0.131501      6.317219     -2.025187
Mn	      1.85454      1.90085      0.06354        -2.869616     -0.269094      0.694277
Mn	      3.84099      3.85296     -3.78458        -3.818501      3.010769      0.747535
Mn	      5.79445     -0.04329     -1.90565        -0.896843     -2.662753      0.669293
Mn	      7.74946      1.85105     -5.66891        -1.744743     -1.298285     -1.123791
Mn	      3.90369      5.70242      1.90640        -4.788472      1.495575      2.490848
Mn	      5.79308      7.62417     -1.98385        -3.398322      5.048631      3.204717
Mn	      7.74026      3.77169     -0.00511        -1.380938     -3.808590      2.623994
Mn	      9.68490      5.67781     -3.75265         2.621730      0.904388     -0.530344
Mn	      1.97514     -0.02487     -1.84716        -3.154644     -0.889622      1.235874
Mn	      3.86446      1.88925     -5.68576        -1.450858     -4.485422     -1.795142
Mn	      9.67222      5.69281      0.00463         3.763298      2.759996      4.967209
Mn	      7.79973     -0.03086     -7.60123        -1.389179     -3.317059     -4.091961
Mn	      3.91484      3.87173     -0.00357        -1.748878     -2.650966      2.706421
Mn	      5.83122      5.70297     -3.80556        -1.520216      0.270390      0.507008
Mn	      7.79113      1.86736     -1.92334         1.301864     -1.766860      4.728013
Mn	      9.67034      3.78753     -5.71379         1.546553     -0.347256     -0.448458
O	      3.79084     -0.17126     -2.01973         0.990119      0.240657      0.150083
O	      5.94490      1.69879     -5.67904        -2.554800     -0.729153     -1.179901
O	      7.77341     -2.13695     -3.85112        -0.058644     -1.357067     -0.332393
O	      9.82332     -0.06782     -7.58088         1.267956      0.126129     -0.554827
O	      5.88584      3.63869     -0.00326        -1.088170     -0.332558      1.139376
O	      7.87014      5.53058     -3.75304        -1.059364      2.547936      0.563866
O	      9.86316      1.76124     -1.92750         0.265150     -1.067823      0.898102
O	     11.77171      3.64181     -5.71989         1.089022      1.460171     -0.083805
O	      5.68209      1.84356     -1.73827         0.412924     -0.346364      0.639838
O	      7.67732      3.62454     -5.53206        -1.010670      2.983664     -2.463214
O	      9.73695     -0.16197     -3.70309         1.780311     -1.151257     -0.403916
O	     11.58369      1.76401     -7.49503         1.236946      0.170034     -3.401279
O	      7.61840      5.55882      0.11066        -0.034806      2.551667     -3.576283
O	      9.61125      7.44624     -3.62345         0.100927      3.519221     -1.756164
O	     11.68466      3.65353     -1.80921         1.994333     -0.278657     -0.194611
O	     13.47773      5.45918     -5.64700         3.133808     -0.301260      0.421991
O	      3.84887      2.02273     -3.89051        -0.852296     -2.536557      1.118644
O	      5.93410      3.89923     -7.55115        -0.568825      0.509698     -2.544610
O	      7.85825      0.08130     -5.81162        -0.236309     -3.079106      1.546897
O	      9.70970      1.86197     -9.62428         0.026741      0.347011     -1.970903
O	      5.87288      5.85689     -2.01137        -0.383853     -2.539270      2.408314
O	      7.81264      7.67650     -5.71562         0.780818      0.159884     -1.497246
O	      9.74730      3.91119     -3.91225         0.381304     -3.040038      2.390279
O	     11.67855      5.75215     -7.70002         1.705863      0.217029     -1.229966
O	      5.65876      3.92732     -3.78098         1.381227     -2.633196     -0.033086
O	      7.74366      0.11846     -1.91183        -0.247978     -3.637205      1.417911
O	      9.56013      2.01058     -5.67318         1.919385     -2.586424      0.317186
O	      5.66498      5.71382      1.89887         2.531023      0.940575      0.929457
O	      7.57189      7.76066     -1.80264         2.372459      1.129298      1.461327
O	      9.54484      3.88480     -0.01713         1.807924     -2.386312      1.256573
O	     11.55098      5.81943     -3.72516         1.444292      0.430006      1.018716
O	      3.86205      3.66299     -5.77251        -1.204682      2.257206     -0.462407
O	      5.82205     -0.13727     -3.89004        -0.743962     -1.540855     -1.398925
O	      7.75453      1.75058     -7.71643        -0.710591      1.098056     -1.055187
O	      3.94526      5.78524     -0.10157         0.999893      1.754938      6.739737
O	      5.85618      7.48990     -3.89666        -0.773663      3.067929      1.292005
O	      7.76543      3.65466     -1.99734        -0.126602      2.708126      2.225855
O	      9.64728      5.56483     -5.80299        -0.346253      3.365387      1.870920
O	      3.83039      3.93943     -1.82470        -0.977406     -0.466698     -1.383195
O	      5.87041      5.78836     -5.57731        -0.504197     -1.702658     -2.922415
O	      7.71517      1.96166     -3.68131         0.026431     -2.507879     -2.812011
O	      9.57208      3.88693     -7.49716        -0.188700     -2.040116     -3.230865
O	      7.73097      9.62530     -3.63994         0.381134     -1.725450      0.589598
O	      9.62969      5.79760     -1.76255        -0.216049     -2.591735     -1.206070
O	     11.58002      7.66069     -5.55257         1.180146      1.186321      0.381787
