# total energy = -581.18189318 eV
 
CRYSTAL
PRIMVEC
4.059830 8.106444 4.039745 
8.223070 -4.105660 -4.048345 
4.103378 3.995037 -8.009459 
PRIMCOORD
93 1
Li	      4.05838      1.85936     -2.18957        -1.023197     -0.038970      0.799323
Li	      5.92012      3.82199     -5.77592        -0.539593      0.200936     -0.712455
Li	      7.86991     -0.03863     -3.80862         0.157279     -1.193481     -0.422525
Li	      9.82670      1.80077     -7.70462        -0.133305      0.342621     -0.699030
Li	      5.87424      5.54430      0.01905        -0.131790      0.478562     -0.276126
Li	      7.86336      7.71573     -3.83340        -0.243497      0.678655     -0.045486
Li	      9.78657      3.74538     -1.88885         0.953964     -0.504493      0.029968
Li	     11.81280      5.69630     -5.75331         0.343574      0.559275      0.121727
Li	      4.06747     -0.06225     -3.85638        -0.672229      0.058788     -0.442333
Li	      9.74636      9.59628     -3.78542         0.545303      0.628563     -0.143715
Li	     11.57695      5.68024     -1.88279         1.210082     -0.507959      0.843883
Li	      9.80544      0.02364     -9.60201        -0.078855     -0.592076     -0.427889
Li	      5.81431      3.73834     -1.93816        -0.132930      0.281083      0.446490
Li	      7.85193      5.83000     -5.52816        -0.172750      0.194213     -1.264979
Li	      9.83813      1.89631     -3.82033         0.023824     -0.722210      0.544995
Li	     11.79040      3.75258     -7.72062         0.175244      0.197359     -0.312162
Li	      5.87403      1.91202     -3.88258        -0.225741     -0.430979      0.163751
Li	      7.75868      3.57953     -7.66163         0.084371      0.058952     -0.467054
Li	      9.80552      0.16715     -5.74835         0.343318     -0.805035      0.349222
Li	     11.66791      1.86903     -9.60672         0.509890     -0.070061     -0.893673
Li	      7.77266      5.75169     -1.89918        -0.027121      0.195773      0.480908
Li	      9.73458      7.69948     -5.69071         0.907238      0.214465     -0.147766
Li	     11.57978      3.72679     -3.82740         1.561406      0.397283      0.449507
Li	     13.68284      5.75851     -7.65792         0.555261      0.111261     -0.131705
Mn	      7.80038      3.78423     -3.79246        -0.594363      0.237702     -0.293090
Mn	      9.84490      5.70796     -7.64564         0.251854      3.088932     -4.133912
Mn	     11.75762      1.87941     -5.74852         0.275696     -1.926717     -5.334268
Mn	      5.87686      7.68446     -5.71628        -1.378132      4.234944     -3.833034
Mn	      9.74756      7.66345     -1.86009         0.914901      5.034228      3.012468
Mn	      7.72230      5.73964      1.90753         0.076252      0.928953      5.435926
Mn	      9.74511     -1.93958     -7.67180        -0.167574     -3.061933     -1.113905
Mn	      7.78718     11.52786     -3.76657         0.190111      5.805462     -1.816127
Mn	      1.87411      1.92091      0.06421        -2.638879     -0.267873      0.580740
Mn	      3.88153      3.89363     -3.82452        -3.357459      2.610112      0.761608
Mn	      5.85561     -0.04375     -1.92576        -0.826644     -2.313611      0.551397
Mn	      7.83125      1.87058     -5.72874        -1.519805     -1.130820     -1.007228
Mn	      3.94489      5.76260      1.92653        -4.254998      1.342866      2.192513
Mn	      5.85422      7.70464     -2.00478        -2.971996      4.444520      2.811174
Mn	      7.82195      3.81149     -0.00517        -1.263229     -3.279929      2.305147
Mn	      9.78711      5.73774     -3.79226         2.274110      0.780105     -0.479685
Mn	      1.99599     -0.02513     -1.86665        -2.753976     -0.795181      1.165871
Mn	      3.90525      1.90920     -5.74577        -1.316478     -4.066551     -1.538420
Mn	      9.77430      5.75289      0.00468         3.316043      2.419346      4.404340
Mn	      7.88205     -0.03117     -7.68145        -1.175636     -2.886380     -3.610295
Mn	      3.95617      3.91259     -0.00361        -1.552365     -2.330542      2.399040
Mn	      5.89276      5.76316     -3.84572        -1.291593      0.287018      0.448632
Mn	      7.87336      1.88707     -1.94364         1.130181     -1.552412      4.114078
Mn	      9.77239      3.82750     -5.77409         1.327126     -0.304436     -0.398438
O	      3.83085     -0.17306     -2.04105         0.797298      0.307725      0.068834
O	      6.00764      1.71672     -5.73898        -2.292807     -0.716573     -1.047824
O	      7.85544     -2.15950     -3.89176        -0.010208     -1.355016     -0.273017
O	      9.92699     -0.06853     -7.66088         1.163057      0.045716     -0.531142
O	      5.94796      3.67710     -0.00329        -0.905967     -0.292226      1.039444
O	      7.95321      5.58895     -3.79266        -0.884332      2.195366      0.496040
O	      9.96726      1.77983     -1.94784         0.361605     -1.023425      0.784637
O	     11.89593      3.68024     -5.78026         0.989320      1.200942     -0.116588
O	      5.74205      1.86302     -1.75661         0.299203     -0.354681      0.650343
O	      7.75834      3.66279     -5.59044        -0.854596      2.581439     -2.089623
O	      9.83971     -0.16368     -3.74218         1.554034     -1.029392     -0.346574
O	     11.70595      1.78263     -7.57414         1.141946      0.064704     -2.991701
O	      7.69880      5.61749      0.11183         0.019755      2.149101     -3.106059
O	      9.71268      7.52483     -3.66168         0.077811      3.052782     -1.473179
O	     11.80797      3.69209     -1.82831         1.844121     -0.278832     -0.137098
O	     13.61998      5.51680     -5.70661         2.827689     -0.295066      0.368368
O	      3.88950      2.04407     -3.93158        -0.717437     -2.002520      0.867901
O	      5.99673      3.94038     -7.63085        -0.514735      0.399901     -2.279132
O	      7.94119      0.08216     -5.87296        -0.212699     -2.676770      1.280069
O	      9.81217      1.88163     -9.72585         0.041638      0.229065     -1.862603
O	      5.93486      5.91871     -2.03259        -0.334190     -2.155803      2.030648
O	      7.89509      7.75752     -5.77594         0.680301      0.127366     -1.348621
O	      9.85018      3.95247     -3.95354         0.346237     -2.609425      2.035147
O	     11.80181      5.81286     -7.78129         1.509486      0.215802     -1.117184
O	      5.71849      3.96877     -3.82088         1.061722     -2.235146     -0.044563
O	      7.82538      0.11970     -1.93200        -0.240730     -3.166937      1.250294
O	      9.66103      2.03181     -5.73306         1.688110     -2.202990      0.282252
O	      5.72478      5.77412      1.91891         2.158373      0.872027      0.826696
O	      7.65180      7.84256     -1.82166         2.064798      1.082025      1.278310
O	      9.64558      3.92580     -0.01731         1.529552     -1.977190      1.119021
O	     11.67289      5.88086     -3.76447         1.215368      0.422347      0.946155
O	      3.90281      3.70166     -5.83343        -1.094625      1.829106     -0.474319
O	      5.88350     -0.13872     -3.93110        -0.687033     -1.459721     -1.274467
O	      7.83637      1.76905     -7.79787        -0.620856      0.844412     -1.005959
O	      3.98690      5.84631     -0.10263         0.638599      1.630078      5.839750
O	      5.91799      7.56895     -3.93779        -0.679175      2.615589      1.124503
O	      7.84739      3.69324     -2.01841        -0.104346      2.330122      1.936458
O	      9.74910      5.62357     -5.86423        -0.310790      2.893666      1.557244
O	      3.87081      3.98102     -1.84395        -0.880396     -0.419053     -1.143217
O	      5.93237      5.84945     -5.63616        -0.430397     -1.439499     -2.469888
O	      7.79659      1.98237     -3.72015         0.008203     -2.109905     -2.368962
O	      9.67311      3.92795     -7.57629        -0.142798     -1.698171     -2.767647
O	      7.81256      9.72688     -3.67835         0.350540     -1.333731      0.601509
O	      9.73133      5.85879     -1.78116        -0.190293     -2.212603     -0.946990
O	     11.70223      7.74154     -5.61117         1.056754      0.925065      0.365330
