# total energy = -587.15509378 eV
 
CRYSTAL
PRIMVEC
4.081086 8.148886 4.060895 
8.266123 -4.127156 -4.069540 
4.124862 4.015954 -8.051393 
PRIMCOORD
93 1
Li	      4.10099      1.87887     -2.21255        -0.876044     -0.034052      0.700531
Li	      5.98228      3.86212     -5.83656        -0.448825      0.184824     -0.629868
Li	      7.95254     -0.03904     -3.84861         0.140666     -1.038568     -0.355364
Li	      9.92988      1.81968     -7.78551        -0.129212      0.290234     -0.606699
Li	      5.93590      5.60251      0.01925        -0.113757      0.397243     -0.233440
Li	      7.94591      7.79674     -3.87363        -0.217526      0.586529     -0.041513
Li	      9.88931      3.78470     -1.90869         0.824102     -0.462775      0.026061
Li	     11.93682      5.75610     -5.81371         0.312493      0.480509      0.107855
Li	      4.11018     -0.06290     -3.89688        -0.580012      0.061870     -0.363811
Li	      9.84869      9.69703     -3.82516         0.507170      0.560643     -0.114722
Li	     11.69849      5.73988     -1.90254         1.043800     -0.442415      0.743421
Li	      9.90839      0.02388     -9.70282        -0.083305     -0.510842     -0.364149
Li	      5.87535      3.77759     -1.95850        -0.117713      0.234187      0.394607
Li	      7.93436      5.89121     -5.58619        -0.152503      0.173607     -1.082977
Li	      9.94141      1.91622     -3.86044        -0.003393     -0.638969      0.491367
Li	     11.91419      3.79199     -7.80168         0.151554      0.176976     -0.273890
Li	      5.93571      1.93210     -3.92334        -0.178808     -0.377937      0.136665
Li	      7.84013      3.61711     -7.74205         0.077847      0.021611     -0.398679
Li	      9.90846      0.16890     -5.80869         0.300003     -0.698076      0.286648
Li	     11.79041      1.88865     -9.70757         0.440385     -0.052906     -0.824667
Li	      7.85427      5.81208     -1.91912        -0.034488      0.163797      0.412883
Li	      9.83678      7.78030     -5.75046         0.801270      0.177356     -0.131470
Li	     11.70135      3.76592     -3.86759         1.347000      0.354387      0.363809
Li	     13.82649      5.81897     -7.73831         0.478714      0.087344     -0.132407
Mn	      7.88227      3.82396     -3.83228        -0.508846      0.153679     -0.254846
Mn	      9.94825      5.76788     -7.72590         0.273218      2.630001     -3.624138
Mn	     11.88106      1.89915     -5.80887         0.427054     -1.710378     -4.567676
Mn	      5.93855      7.76513     -5.77629        -1.179787      3.732909     -3.286829
Mn	      9.84991      7.74391     -1.87962         0.799612      4.420985      2.610663
Mn	      7.80337      5.79990      1.92755         0.062164      0.851490      4.761213
Mn	      9.84742     -1.95993     -7.75234        -0.137951     -2.634292     -1.005784
Mn	      7.86893     11.64889     -3.80611         0.239017      5.283860     -1.592206
Mn	      1.89379      1.94107      0.06488        -2.398018     -0.257899      0.478856
Mn	      3.92228      3.93450     -3.86468        -2.924206      2.249766      0.737619
Mn	      5.91709     -0.04421     -1.94598        -0.747205     -1.949300      0.454806
Mn	      7.91347      1.89022     -5.78888        -1.305027     -0.972402     -0.887514
Mn	      3.98631      5.82310      1.94675        -3.743086      1.179388      1.913332
Mn	      5.91569      7.78553     -2.02583        -2.574888      3.865653      2.435299
Mn	      7.90407      3.85151     -0.00523        -1.137057     -2.801773      1.988372
Mn	      9.88986      5.79798     -3.83207         1.943251      0.659416     -0.427881
Mn	      2.01695     -0.02539     -1.88625        -2.389324     -0.700717      1.088422
Mn	      3.94625      1.92924     -5.80610        -1.185622     -3.634361     -1.293082
Mn	      9.87692      5.81329      0.00473         2.893297      2.109452      3.899008
Mn	      7.96480     -0.03150     -7.76210        -0.976062     -2.492380     -3.114308
Mn	      3.99770      3.95367     -0.00364        -1.365743     -2.025673      2.100690
Mn	      5.95463      5.82367     -3.88609        -1.089529      0.276996      0.395540
Mn	      7.95602      1.90689     -1.96404         0.959096     -1.348470      3.530907
Mn	      9.87499      3.86768     -5.83471         1.123727     -0.269351     -0.347646
O	      3.87107     -0.17488     -2.06247         0.633843      0.279213     -0.008856
O	      6.07071      1.73474     -5.79923        -2.024348     -0.695515     -0.922070
O	      7.93791     -2.18217     -3.93262         0.028030     -1.354434     -0.222606
O	     10.03121     -0.06925     -7.74131         1.038059     -0.018101     -0.497853
O	      6.01040      3.71569     -0.00333        -0.738602     -0.252551      0.941385
O	      8.03671      5.64763     -3.83247        -0.719225      1.873434      0.430345
O	     10.07190      1.79852     -1.96829         0.460960     -0.970371      0.672669
O	     12.02083      3.71888     -5.84094         0.894398      0.968510     -0.137350
O	      5.80234      1.88258     -1.77506         0.196421     -0.371854      0.649608
O	      7.83980      3.70125     -5.64914        -0.707774      2.207314     -1.753873
O	      9.94301     -0.16540     -3.78146         1.344266     -0.912387     -0.291135
O	     11.82884      1.80134     -7.65366         1.035530      0.008577     -2.583748
O	      7.77963      5.67646      0.11301         0.050252      1.787612     -2.616662
O	      9.81465      7.60383     -3.70012         0.059098      2.614606     -1.221249
O	     11.93193      3.73085     -1.84750         1.694069     -0.274531     -0.079689
O	     13.76297      5.57472     -5.76651         2.515732     -0.274826      0.311061
O	      3.93033      2.06552     -3.97285        -0.619208     -1.608082      0.663399
O	      6.05968      3.98175     -7.71096        -0.462998      0.295852     -2.025683
O	      8.02456      0.08302     -5.93461        -0.189103     -2.296317      1.035026
O	      9.91518      1.90138     -9.82795         0.092294      0.131077     -1.750722
O	      5.99717      5.98084     -2.05394        -0.283690     -1.797395      1.697581
O	      7.97798      7.83896     -5.83658         0.592167      0.111667     -1.204939
O	      9.95358      3.99397     -3.99504         0.319454     -2.204090      1.706222
O	     11.92571      5.87389     -7.86298         1.322275      0.221748     -1.015003
O	      5.77851      4.01044     -3.86099         0.826325     -1.856502     -0.054600
O	      7.90754      0.12096     -1.95229        -0.225924     -2.739878      1.095969
O	      9.76245      2.05313     -5.79325         1.460379     -1.851175      0.242927
O	      5.78488      5.83474      1.93905         1.725675      0.812037      0.728945
O	      7.73214      7.92490     -1.84079         1.771670      1.024825      1.109362
O	      9.74684      3.96701     -0.01749         1.273658     -1.620393      0.986825
O	     11.79544      5.94260     -3.80400         1.009725      0.410703      0.859164
O	      3.94378      3.74051     -5.89467        -0.982312      1.465004     -0.470875
O	      5.94526     -0.14017     -3.97237        -0.624272     -1.368003     -1.150631
O	      7.91864      1.78762     -7.87974        -0.550179      0.636494     -0.963617
O	      4.02876      5.90769     -0.10371         0.352956      1.482148      4.963819
O	      5.98012      7.64842     -3.97913        -0.587445      2.212551      0.967183
O	      7.92978      3.73201     -2.03961        -0.087214      1.985540      1.670620
O	      9.85145      5.68261     -5.92580        -0.269313      2.463482      1.281105
O	      3.91145      4.02281     -1.86331        -0.781090     -0.373292     -0.949931
O	      5.99465      5.91086     -5.69534        -0.365064     -1.200711     -2.062453
O	      7.87845      2.00318     -3.75921        -0.001229     -1.760548     -1.959545
O	      9.77466      3.96919     -7.65583        -0.106509     -1.396235     -2.337426
O	      7.89459      9.82901     -3.71698         0.319646     -0.989905      0.586146
O	      9.83349      5.92030     -1.79985        -0.171061     -1.867276     -0.720649
O	     11.82510      7.82281     -5.67008         0.932175      0.750803      0.298797
