# total energy = -596.75913381 eV
 
CRYSTAL
PRIMVEC
4.123597 8.233770 4.103196 
8.352228 -4.170147 -4.111931 
4.167829 4.057787 -8.135262 
PRIMCOORD
93 1
Li	      4.18686      1.91822     -2.25888        -0.607836     -0.015522      0.509041
Li	      6.10756      3.94300     -5.95879        -0.305328      0.155976     -0.465926
Li	      8.11907     -0.03986     -3.92920         0.109614     -0.752655     -0.228276
Li	     10.13782      1.85778     -7.94855        -0.090843      0.198422     -0.445645
Li	      6.06022      5.71984      0.01965        -0.096373      0.260138     -0.174340
Li	      8.11232      7.96001     -3.95476        -0.168233      0.424363     -0.030203
Li	     10.09641      3.86397     -1.94866         0.583069     -0.371132      0.018915
Li	     12.18680      5.87665     -5.93546         0.244442      0.298555      0.074273
Li	      4.19625     -0.06422     -3.97849        -0.405099      0.075276     -0.243683
Li	     10.05494      9.90010     -3.90527         0.395817      0.427620     -0.061482
Li	     11.94348      5.86008     -1.94239         0.745159     -0.321029      0.554212
Li	     10.11589      0.02439     -9.90602        -0.050666     -0.349404     -0.250018
Li	      5.99839      3.85669     -1.99951        -0.102810      0.141593      0.284254
Li	      8.10053      6.01458     -5.70318        -0.121251      0.129990     -0.763771
Li	     10.14960      1.95634     -3.94128        -0.036396     -0.484425      0.365692
Li	     12.16369      3.87139     -7.96506         0.110060      0.126825     -0.220916
Li	      6.06001      1.97256     -4.00550        -0.112712     -0.273323      0.100287
Li	      8.00432      3.69286     -7.90419         0.058317     -0.011552     -0.273727
Li	     10.11597      0.17244     -5.93034         0.222922     -0.508254      0.189880
Li	     12.03732      1.92820     -9.91087         0.306899     -0.013076     -0.667208
Li	      8.01875      5.93380     -1.95931        -0.037105      0.111191      0.266825
Li	     10.04278      7.94324     -5.87088         0.563856      0.107603     -0.101308
Li	     11.94639      3.84479     -3.94857         0.949302      0.265505      0.221459
Li	     14.11605      5.94083     -7.90037         0.351725      0.042025     -0.125017
Mn	      8.04734      3.90404     -3.91253        -0.360429      0.044932     -0.181318
Mn	     10.15659      5.88868     -7.88770         0.239468      1.790628     -2.696456
Mn	     12.12987      1.93892     -5.93051         0.563819     -1.261934     -3.123553
Mn	      6.06292      7.92775     -5.89726        -0.862969      2.729245     -2.287212
Mn	     10.05617      7.90608     -1.91898         0.566708      3.262167      1.873090
Mn	      7.96679      5.92136      1.96792         0.106961      0.648821      3.552385
Mn	     10.05364     -2.00098     -7.91469        -0.059488     -1.869220     -0.758976
Mn	      8.03372     11.89283     -3.88582         0.291208      4.225137     -1.116007
Mn	      1.93345      1.98172      0.06624        -1.881648     -0.215342      0.309442
Mn	      4.00442      4.01690     -3.94561        -2.110411      1.602078      0.625056
Mn	      6.04099     -0.04513     -1.98674        -0.542017     -1.303454      0.304893
Mn	      8.07918      1.92980     -5.91011        -0.927744     -0.677297     -0.626930
Mn	      4.06979      5.94505      1.98752        -2.798508      0.852423      1.404059
Mn	      6.03957      7.94858     -2.06826        -1.846307      2.786920      1.733234
Mn	      8.06960      3.93217     -0.00533        -0.854475     -1.991262      1.343801
Mn	     10.09697      5.91940     -3.91232         1.335141      0.449469     -0.315959
Mn	      2.05919     -0.02593     -1.92575        -1.764156     -0.483599      0.889674
Mn	      4.02889      1.96964     -5.92769        -0.931376     -2.734572     -0.857454
Mn	     10.08376      5.93503      0.00483         2.129692      1.568011      2.989753
Mn	      8.13159     -0.03216     -7.92465        -0.627736     -1.797978     -2.106377
Mn	      4.08141      4.03647     -0.00372        -1.018268     -1.468136      1.515634
Mn	      6.07933      5.94562     -3.96747        -0.747690      0.238700      0.271505
Mn	      8.12263      1.94682     -2.00517         0.617349     -1.050899      2.472047
Mn	     10.08179      3.94867     -5.95690         0.770830     -0.192788     -0.273466
O	      3.95213     -0.17855     -2.10566         0.304528     -0.053167     -0.148589
O	      6.19784      1.77107     -5.92067        -1.453388     -0.607104     -0.679673
O	      8.10415     -2.22787     -4.01498         0.087743     -1.331962     -0.148276
O	     10.24129     -0.07070     -7.90344         0.783721     -0.099957     -0.414270
O	      6.13627      3.79350     -0.00340        -0.434962     -0.167181      0.741839
O	      8.20500      5.76590     -3.91273        -0.437796      1.291838      0.307301
O	     10.28282      1.83618     -2.00950         0.593455     -0.776112      0.461334
O	     12.27256      3.79676     -5.96326         0.703811      0.589601     -0.145605
O	      5.92385      1.92200     -1.81223         0.061341     -0.246813      0.621570
O	      8.00397      3.77875     -5.76743        -0.459900      1.513366     -1.173015
O	     10.15124     -0.16886     -3.86066         0.955628     -0.654142     -0.199881
O	     12.07655      1.83907     -7.81393         0.795719     -0.032809     -1.788353
O	      7.94254      5.79533      0.11537         0.065910      1.199188     -1.587485
O	     10.02019      7.76306     -3.77761         0.026542      1.818143     -0.837594
O	     12.18181      3.80899     -1.88619         1.367853     -0.299841     -0.007033
O	     14.05119      5.69146     -5.88727         1.891974     -0.214392      0.210469
O	      4.01263      2.10878     -4.05605        -0.449322     -1.028159      0.345961
O	      6.18659      4.06513     -7.87245        -0.359382      0.105633     -1.517301
O	      8.19261      0.08476     -6.05889        -0.137448     -1.586381      0.599134
O	     10.12283      1.94120    -10.03377         0.131249     -0.127188     -1.518115
O	      6.12276      6.10609     -2.09694        -0.194982     -1.182914      1.139525
O	      8.14505      8.00313     -5.95880         0.473014      0.157171     -0.909247
O	     10.16203      4.07760     -4.07871         0.254828     -1.495469      1.142410
O	     12.17546      5.99690     -8.02765         0.972203      0.233365     -0.798259
O	      5.89953      4.09443     -3.94185         0.476191     -1.205694     -0.055431
O	      8.07314      0.12350     -1.99317        -0.062161     -1.887292      0.804262
O	      9.96689      2.09613     -5.91457         1.014711     -1.236825      0.170593
O	      5.90603      5.95693      1.97966         0.927261      0.647821      0.554218
O	      7.89406      8.09087     -1.87934         1.227886      0.846211      0.787240
O	      9.95095      4.05009     -0.01785         0.816430     -1.046722      0.753821
O	     12.04246      6.06705     -3.88365         0.642868      0.394140      0.647281
O	      4.02638      3.81885     -6.01811        -0.742762      0.882058     -0.422553
O	      6.06977     -0.14311     -4.05556        -0.485367     -1.144688     -0.894722
O	      8.08447      1.82506     -8.04476        -0.425879      0.335809     -0.943144
O	      4.11313      6.03140     -0.10589        -0.010095      1.158238      3.337233
O	      6.10535      7.80859     -4.06245        -0.413827      1.503758      0.688519
O	      8.09584      3.81016     -2.08232        -0.040433      1.384970      1.188321
O	     10.05775      5.80161     -6.04988        -0.189365      1.706582      0.835252
O	      3.99337      4.10705     -1.90233        -0.586037     -0.262397     -0.622822
O	      6.12019      6.03464     -5.81462        -0.231126     -0.818700     -1.349214
O	      8.04344      2.04512     -3.83794        -0.005185     -1.158601     -1.267247
O	      9.97936      4.05232     -7.81616        -0.053794     -0.894892     -1.556195
O	      8.05992     10.03484     -3.79482         0.246920     -0.482720      0.484852
O	     10.03943      6.04429     -1.83755        -0.128042     -1.268515     -0.396427
O	     12.07273      7.98663     -5.78883         0.684987      0.725983      0.085131
