# total energy = -91.22560203 eV
 
CRYSTAL
PRIMVEC
4.090485 -0.000002 0.000005 
-0.000005 4.217061 -4.082308 
0.000009 6.294957 2.010527 
PRIMCOORD
16 1
Li	      2.04590      2.12234     -0.02113         0.000151      0.005802     -0.052377
Li	      2.04588      6.39156     -0.04308         0.000184     -0.008150      0.021375
Li	      0.00069      2.10442     -2.01843         0.000526      0.000192      0.024297
Li	      2.04591      4.06810     -2.04982         0.000152     -0.007340      0.021266
Mn	      0.00065      0.06031      0.01402        -0.000272      0.005406      0.017393
Mn	      0.00065      4.14630     -0.07225        -0.000136      0.006984     -0.133330
Ni	      0.00062      6.33151     -2.01594         0.000070     -0.026695      0.052100
Ni	      2.04589      8.39585     -2.02241         0.000026      0.139325     -0.132619
O	      2.04590      4.16317      0.06842        -0.000333     -0.002030     -0.082103
O	      0.00064      6.11951      0.06715        -0.000226     -0.026683      0.035655
O	      2.04589      6.48640     -2.02772        -0.000047     -0.169672     -0.009437
O	      0.00064      8.40045     -2.18479        -0.000424      0.077211      0.138898
O	      2.04591      8.39061     -0.17224         0.000115     -0.012283      0.254000
O	      0.00066      4.31181     -2.03581        -0.000329     -0.102917     -0.075563
O	      2.04588     10.40678     -2.04362        -0.000156      0.089815     -0.000750
O	      0.00064      2.15717     -0.00363         0.000697      0.031035     -0.078807
