# total energy = -603.45336505 eV
 
CRYSTAL
PRIMVEC
4.166108 8.318654 4.145497 
8.438334 -4.213138 -4.154322 
4.210796 4.099619 -8.219131 
PRIMCOORD
93 1
Li	      4.27364      1.95798     -2.30571        -0.372972     -0.020071      0.330393
Li	      6.23414      4.02471     -6.08229        -0.185263      0.125229     -0.300572
Li	      8.28735     -0.04068     -4.01064         0.075668     -0.489090     -0.117085
Li	     10.34792      1.89629     -8.11329        -0.049684      0.125168     -0.294800
Li	      6.18581      5.83838      0.02006        -0.079087      0.152365     -0.120273
Li	      8.28044      8.12498     -4.03672        -0.114385      0.275226     -0.017480
Li	     10.30566      3.94404     -1.98904         0.370068     -0.262983      0.012970
Li	     12.43937      5.99844     -6.05847         0.162001      0.159204      0.043374
Li	      4.28321     -0.06555     -4.06093        -0.248148      0.067396     -0.146467
Li	     10.26333     10.10527     -3.98621         0.264327      0.288702     -0.022307
Li	     12.19100      5.98152     -1.98265         0.475616     -0.207322      0.367743
Li	     10.32554      0.02489    -10.11132        -0.021727     -0.211259     -0.158902
Li	      6.12271      3.93662     -2.04096        -0.077792      0.061570      0.185025
Li	      8.26841      6.13924     -5.82137        -0.084702      0.098235     -0.490355
Li	     10.35995      1.99689     -4.02296        -0.035335     -0.328499      0.241716
Li	     12.41579      3.95163     -8.13013         0.072555      0.081210     -0.167162
Li	      6.18561      2.01345     -4.08852        -0.065158     -0.179480      0.078525
Li	      8.17020      3.76940     -8.06800         0.043042     -0.008563     -0.171748
Li	     10.32562      0.17601     -6.05324         0.155652     -0.334975      0.106760
Li	     12.28680      1.96817    -10.11627         0.197757      0.010254     -0.480941
Li	      8.18494      6.05678     -1.99991        -0.025856      0.067500      0.145160
Li	     10.25091      8.10786     -5.99256         0.348120      0.057053     -0.071928
Li	     12.19398      3.92447     -4.03041         0.599342      0.174837      0.111946
Li	     14.40859      6.06395     -8.06410         0.230203      0.012771     -0.099359
Mn	      8.21411      3.98495     -3.99362        -0.229625     -0.010851     -0.105514
Mn	     10.36708      6.01071     -8.05117         0.156379      1.082438     -1.830967
Mn	     12.38127      1.97910     -6.05343         0.506906     -0.813751     -1.845897
Mn	      6.18857      8.09205     -6.01947        -0.572663      1.746720     -1.420236
Mn	     10.26459      8.06993     -1.95875         0.347652      2.152329      1.203556
Mn	      8.13190      6.04408      2.00871         0.132164      0.479132      2.413915
Mn	     10.26200     -2.04245     -8.07871        -0.006698     -1.199116     -0.495872
Mn	      8.20022     12.13931     -3.96636         0.272756      3.095018     -0.680779
Mn	      1.97352      2.02279      0.06761        -1.308124     -0.157318      0.172063
Mn	      4.08741      4.10015     -4.02737        -1.368133      1.012352      0.458382
Mn	      6.16619     -0.04607     -2.02791        -0.332275     -0.815996      0.186647
Mn	      8.24663      1.96980     -6.03260        -0.594741     -0.416759     -0.367733
Mn	      4.15413      6.06826      2.02871        -1.905905      0.549812      0.911141
Mn	      6.16474      8.11330     -2.11112        -1.192162      1.795737      1.104042
Mn	      8.23683      4.01365     -0.00545        -0.565942     -1.294677      0.791990
Mn	     10.30623      6.04208     -3.99340         0.819004      0.273737     -0.211313
Mn	      2.10186     -0.02647     -1.96566        -1.201943     -0.279433      0.629567
Mn	      4.11238      2.01046     -6.05054        -0.671488     -1.822741     -0.508444
Mn	     10.29275      6.05803      0.00493         1.410249      1.059470      2.094801
Mn	      8.30012     -0.03283     -8.08889        -0.356557     -1.207425     -1.255441
Mn	      4.16601      4.12013     -0.00379        -0.682163     -0.958666      0.973260
Mn	      6.20532      6.06884     -4.04970        -0.457184      0.184564      0.146599
Mn	      8.29097      1.98717     -2.04673         0.343323     -0.770601      1.558502
Mn	     10.29073      4.03052     -6.08036         0.473097     -0.108391     -0.212061
O	      4.03405     -0.18225     -2.14930         0.027024     -0.264045     -0.182300
O	      6.32629      1.80778     -6.04338        -0.901536     -0.453994     -0.453295
O	      8.27211     -2.27404     -4.09819         0.101040     -1.206253     -0.074196
O	     10.45353     -0.07217     -8.06723         0.546955     -0.102037     -0.309506
O	      6.26344      3.87212     -0.00347        -0.205753     -0.082588      0.523199
O	      8.37506      5.88540     -3.99382        -0.230246      0.782914      0.197294
O	     10.49594      1.87423     -2.05115         0.534354     -0.506570      0.286991
O	     12.52692      3.87545     -6.08685         0.501322      0.306307     -0.122242
O	      6.04662      1.96184     -1.84978         0.030034     -0.029930      0.522589
O	      8.16985      3.85707     -5.88697        -0.266362      0.906052     -0.695280
O	     10.36162     -0.17237     -3.94066         0.602615     -0.402107     -0.124469
O	     12.32684      1.87718     -7.97588         0.540322     -0.046799     -1.086439
O	      8.10716      5.91544      0.11776         0.055467      0.744459     -0.698752
O	     10.22785      7.92396     -3.85590         0.013582      1.123400     -0.529754
O	     12.43428      3.88793     -1.92528         0.980892     -0.260898      0.037255
O	     14.34240      5.80942     -6.00928         1.277082     -0.138640      0.118394
O	      4.09580      2.15249     -4.14012        -0.290164     -0.586318      0.140951
O	      6.31480      4.14938     -8.03560        -0.244857     -0.023416     -1.004575
O	      8.36239      0.08652     -6.18446        -0.093644     -0.956847      0.284293
O	     10.33262      1.98143    -10.24172         0.017543     -0.328345     -1.223574
O	      6.24965      6.23264     -2.14041        -0.120990     -0.685865      0.684859
O	      8.31385      8.16899     -6.08230         0.337727      0.153842     -0.608107
O	     10.37264      4.16212     -4.16324         0.167099     -0.904642      0.688159
O	     12.42779      6.12118     -8.19402         0.632705      0.199788     -0.559703
O	      6.02179      4.17928     -4.02354         0.237378     -0.689809     -0.046710
O	      8.24046      0.12605     -2.03448         0.093268     -1.090830      0.526494
O	     10.17346      2.13957     -6.03715         0.603334     -0.744055      0.107689
O	      6.02843      6.08039      2.02069         0.519213      0.442936      0.365760
O	      8.05766      8.25855     -1.91829         0.746613      0.630453      0.493737
O	     10.15720      4.13403     -0.01823         0.459217     -0.603279      0.524905
O	     12.29204      6.19278     -3.96415         0.347130      0.337158      0.434620
O	      4.10983      3.89799     -6.14284        -0.494304      0.450984     -0.332164
O	      6.19556     -0.14607     -4.13961        -0.325113     -0.849713     -0.610505
O	      8.25202      1.86288     -8.21148        -0.291044      0.151085     -0.907556
O	      4.19838      6.15640     -0.10808        -0.152400      0.788429      1.927529
O	      6.23188      7.97042     -4.14665        -0.257369      0.902561      0.445245
O	      8.26363      3.88913     -2.12548        -0.012133      0.860623      0.747247
O	     10.26620      5.92184     -6.17527        -0.110450      1.049828      0.483247
O	      4.07612      4.19217     -1.94175        -0.393136     -0.147101     -0.367462
O	      6.24703      6.15971     -5.93512        -0.126264     -0.530652     -0.767249
O	      8.21014      2.08751     -3.91749         0.008750     -0.669171     -0.755576
O	     10.18618      4.13630     -7.97814        -0.020447     -0.512563     -0.895287
O	      8.22696     10.24280     -3.87346         0.167579     -0.173094      0.347055
O	     10.24749      6.16955     -1.87563        -0.093628     -0.778232     -0.184500
O	     12.32294      8.15216     -5.90880         0.431427      0.646911     -0.022750
