# total energy = -607.42031420 eV
 
CRYSTAL
PRIMVEC
4.208619 8.403539 4.187798 
8.524439 -4.256130 -4.196713 
4.253764 4.141452 -8.302999 
PRIMCOORD
93 1
Li	      4.36130      1.99814     -2.35300        -0.179780     -0.032590      0.159507
Li	      6.36201      4.10728     -6.20705        -0.081848      0.080631     -0.149358
Li	      8.45734     -0.04152     -4.09291         0.038855     -0.236964     -0.052774
Li	     10.56019      1.93518     -8.27970        -0.028297      0.061474     -0.143768
Li	      6.31270      5.95814      0.02047        -0.043886      0.066714     -0.064847
Li	      8.45029      8.29164     -4.11952        -0.060360      0.141846     -0.005241
Li	     10.51705      4.02495     -2.02984         0.182681     -0.141928      0.008766
Li	     12.69453      6.12148     -6.18274         0.079485      0.062703      0.019789
Li	      4.37107     -0.06690     -4.14423        -0.117668      0.030901     -0.065596
Li	     10.47385     10.31256     -4.06797         0.136657      0.155999     -0.003488
Li	     12.44107      6.10422     -2.02331         0.232187     -0.104335      0.184974
Li	     10.53735      0.02540    -10.31873        -0.006641     -0.100419     -0.076766
Li	      6.24830      4.01737     -2.08283        -0.043378      0.015588      0.092299
Li	      8.43801      6.26517     -5.94078        -0.041157      0.066649     -0.240418
Li	     10.57246      2.03786     -4.10549        -0.022747     -0.169511      0.114738
Li	     12.67046      4.03269     -8.29690         0.038069      0.040431     -0.091591
Li	      6.31248      2.05474     -4.17237        -0.032525     -0.087925      0.047338
Li	      8.33780      3.84672     -8.23350         0.031576     -0.007602     -0.081339
Li	     10.53742      0.17962     -6.17742         0.081694     -0.167560      0.046943
Li	     12.53882      2.00854    -10.32378         0.101568      0.013431     -0.256611
Li	      8.35283      6.18102     -2.04094        -0.013067      0.026086      0.065452
Li	     10.46118      8.27417     -6.11547         0.165526      0.019662     -0.044381
Li	     12.44411      4.00497     -4.11309         0.291530      0.087157      0.039466
Li	     14.70415      6.18834     -8.22951         0.119406      0.003500     -0.057785
Mn	      8.38261      4.06669     -4.07554        -0.118007     -0.034586     -0.049399
Mn	     10.57972      6.13401     -8.21631         0.050065      0.487060     -0.939149
Mn	     12.63523      2.01970     -6.17759         0.301751     -0.387573     -0.792295
Mn	      6.31551      8.25804     -6.14295        -0.269285      0.830949     -0.662240
Mn	     10.47514      8.23546     -1.99894         0.159387      1.075579      0.582079
Mn	      8.29871      6.16805      2.04991         0.105220      0.286446      1.283811
Mn	     10.47250     -2.08434     -8.24443         0.007456     -0.596829     -0.228692
Mn	      8.36843     12.38831     -4.04772         0.179479      1.773158     -0.302421
Mn	      2.01400      2.06429      0.06900        -0.661302     -0.085740      0.053050
Mn	      4.17125      4.18426     -4.10998        -0.677612      0.474701      0.240903
Mn	      6.29268     -0.04702     -2.06951        -0.157862     -0.388634      0.090380
Mn	      8.41578      2.01020     -6.15634        -0.284280     -0.197600     -0.168201
Mn	      4.23934      6.19273      2.07032        -0.980389      0.266696      0.445881
Mn	      6.29118      8.27972     -2.15442        -0.585095      0.868518      0.544442
Mn	      8.40579      4.09598     -0.00556        -0.287205     -0.610571      0.358648
Mn	     10.51763      6.16602     -4.07532         0.384709      0.119017     -0.110979
Mn	      2.14498     -0.02701     -2.00599        -0.633940     -0.106962      0.314837
Mn	      4.19674      2.05170     -6.17464        -0.371916     -0.907021     -0.232860
Mn	     10.50387      6.18230      0.00503         0.691300      0.553833      1.138566
Mn	      8.47038     -0.03350     -8.25481        -0.147509     -0.606465     -0.569861
Mn	      4.25146      4.20463     -0.00387        -0.346284     -0.485478      0.466761
Mn	      6.33260      6.19333     -4.13277        -0.208388      0.104697      0.053517
Mn	      8.46103      2.02793     -2.08871         0.143071     -0.394178      0.744480
Mn	     10.50182      4.11319     -6.20508         0.214260     -0.044388     -0.137442
O	      4.11679     -0.18598     -2.19338        -0.051181     -0.215373     -0.117421
O	      6.45605      1.84486     -6.16734        -0.420400     -0.264569     -0.218795
O	      8.44178     -2.32069     -4.18225         0.062541     -0.847063     -0.016432
O	     10.66796     -0.07364     -8.23271         0.301519     -0.056158     -0.170738
O	      6.39193      3.95155     -0.00354        -0.047400     -0.031255      0.272024
O	      8.54685      6.00612     -4.07575        -0.080317      0.359167      0.102897
O	     10.71123      1.91267     -2.09323         0.331043     -0.252348      0.132473
O	     12.78387      3.95495     -6.21171         0.278021      0.110037     -0.078050
O	      6.17066      2.00208     -1.88773         0.019392      0.037466      0.331339
O	      8.33743      3.93618     -6.00771        -0.118166      0.407011     -0.303046
O	     10.57416     -0.17589     -4.02150         0.272932     -0.160623     -0.052357
O	     12.57970      1.91569     -8.13949         0.276350     -0.020911     -0.498365
O	      8.27345      6.03678      0.12018         0.043190      0.333015     -0.236915
O	     10.43765      8.08649     -3.93500        -0.000831      0.511886     -0.244591
O	     12.68934      3.96768     -1.96477         0.527559     -0.145903      0.037315
O	     14.63659      5.92858     -6.13255         0.659285     -0.063173      0.030727
O	      4.17981      2.19664     -4.22504        -0.141607     -0.260030      0.031427
O	      6.44434      4.23450     -8.20043        -0.131199     -0.070549     -0.483667
O	      8.53393      0.08829     -6.31132        -0.053033     -0.430185      0.097684
O	     10.54457      2.02207    -10.45180        -0.013642     -0.279638     -0.757887
O	      6.37785      6.36049     -2.18431        -0.059309     -0.288396      0.298595
O	      8.48439      8.33655     -6.20706         0.175368      0.086484     -0.284993
O	     10.58540      4.24749     -4.24864         0.084952     -0.404648      0.320600
O	     12.68271      6.24674     -8.36210         0.309598      0.107882     -0.292947
O	      6.14532      4.26501     -4.10608         0.076091     -0.287293     -0.026445
O	      8.40948      0.12864     -2.07621         0.088839     -0.487774      0.263002
O	     10.38214      2.18346     -6.16099         0.270272     -0.333954      0.046657
O	      6.15208      6.20511      2.06214         0.222981      0.221373      0.176457
O	      8.22295      8.42795     -1.95764         0.334441      0.349585      0.225356
O	     10.36554      4.21882     -0.01861         0.187666     -0.268743      0.278365
O	     12.54418      6.31982     -4.04546         0.123550      0.203983      0.223509
O	      4.19412      3.97795     -6.26885        -0.249778      0.172640     -0.193387
O	      6.32265     -0.14908     -4.22452        -0.153787     -0.469628     -0.317816
O	      8.42128      1.90110     -8.37991        -0.149598      0.035794     -0.622457
O	      4.28449      6.28268     -0.11030        -0.134542      0.406816      0.801409
O	      6.35971      8.13391     -4.23171        -0.117987      0.409686      0.217404
O	      8.43314      3.96890     -2.16907         0.006485      0.396694      0.349563
O	     10.47678      6.04331     -6.30194        -0.049662      0.478791      0.204992
O	      4.15973      4.27816     -1.98159        -0.203535     -0.051708     -0.174204
O	      6.37517      6.28606     -6.05686        -0.057032     -0.247666     -0.312975
O	      8.37855      2.13034     -3.99784         0.007704     -0.290464     -0.333351
O	     10.39512      4.22114     -8.14180         0.001724     -0.210256     -0.371894
O	      8.39571     10.45291     -3.95292         0.083395     -0.025271      0.185242
O	     10.45769      6.29610     -1.91410        -0.046701     -0.358893     -0.054269
O	     12.57571      8.31937     -6.03000         0.199307      0.375597     -0.033158
