# total energy = -608.41633191 eV
 
CRYSTAL
PRIMVEC
4.229875 8.445981 4.208949 
8.567492 -4.277625 -4.217909 
4.275247 4.162369 -8.344934 
PRIMCOORD
93 1
Li	      4.40547      2.01837     -2.37683        -0.100978     -0.039042      0.077997
Li	      6.42643      4.14886     -6.26990        -0.035032      0.055445     -0.077985
Li	      8.54298     -0.04194     -4.13435         0.021312     -0.115211     -0.031663
Li	     10.66712      1.95478     -8.36355        -0.016940      0.029970     -0.073751
Li	      6.37662      6.01848      0.02068        -0.025160      0.031795     -0.039393
Li	      8.53586      8.37561     -4.16124        -0.027725      0.081060     -0.000686
Li	     10.62355      4.06571     -2.05040         0.092655     -0.078174      0.006510
Li	     12.82308      6.18347     -6.24536         0.032633      0.023916      0.009027
Li	      4.41534     -0.06757     -4.18620        -0.061652      0.006515     -0.029035
Li	     10.57991     10.41699     -4.10917         0.070725      0.086890      0.003407
Li	     12.56705      6.16603     -2.04381         0.117174     -0.056249      0.092468
Li	     10.64405      0.02565    -10.42322        -0.003578     -0.046623     -0.034352
Li	      6.31157      4.05805     -2.10391        -0.028073      0.002011      0.045788
Li	      8.52346      6.32862     -6.00095        -0.016751      0.048498     -0.130965
Li	     10.67952      2.05849     -4.14706        -0.011654     -0.086137      0.047771
Li	     12.79877      4.07352     -8.38092         0.019034      0.022049     -0.045470
Li	      6.37641      2.07556     -4.21463        -0.018925     -0.043401      0.030674
Li	      8.42223      3.88567     -8.31687         0.023149     -0.008792     -0.041255
Li	     10.64413      0.18144     -6.23997         0.044433     -0.084081      0.022273
Li	     12.66580      2.02888    -10.42832         0.052046      0.011375     -0.125964
Li	      8.43741      6.24360     -2.06161        -0.004146      0.004061      0.036638
Li	     10.56712      8.35796     -6.17741         0.084016      0.010925     -0.028734
Li	     12.57013      4.04553     -4.15473         0.155484      0.044622      0.014972
Li	     14.85305      6.25100     -8.31285         0.061011      0.001157     -0.024538
Mn	      8.46750      4.10788     -4.11681        -0.069051     -0.034989     -0.024862
Mn	     10.68686      6.19612     -8.29952        -0.005919      0.232153     -0.476990
Mn	     12.76318      2.04014     -6.24015         0.163658     -0.193481     -0.361236
Mn	      6.37946      8.34166     -6.20515        -0.127469      0.391390     -0.325836
Mn	     10.58121      8.31886     -2.01917         0.073980      0.541066      0.288521
Mn	      8.38274      6.23052      2.07067         0.067175      0.161541      0.677532
Mn	     10.57855     -2.10545     -8.32792         0.003993     -0.326820     -0.086853
Mn	      8.45317     12.51376     -4.08871         0.104731      0.969763     -0.134911
Mn	      2.03439      2.08519      0.06971        -0.308860     -0.039461      0.000369
Mn	      4.21349      4.22663     -4.15161        -0.339002      0.225844      0.119185
Mn	      6.35640     -0.04749     -2.09046        -0.085825     -0.184781      0.044713
Mn	      8.50100      2.03056     -6.21868        -0.135354     -0.098479     -0.080459
Mn	      4.28228      6.25544      2.09129        -0.509122      0.130994      0.225512
Mn	      6.35490      8.36357     -2.17625        -0.288385      0.431058      0.294924
Mn	      8.49091      4.13746     -0.00562        -0.150959     -0.287589      0.175294
Mn	     10.62414      6.22846     -4.11659         0.190647      0.045135     -0.060352
Mn	      2.16670     -0.02728     -2.02630        -0.331449     -0.021047      0.131851
Mn	      4.23924      2.07247     -6.23718        -0.197164     -0.448890     -0.113401
Mn	     10.61024      6.24490      0.00508         0.340748      0.292789      0.603253
Mn	      8.55615     -0.03384     -8.33840        -0.059336     -0.305587     -0.275959
Mn	      4.29451      4.24722     -0.00391        -0.178926     -0.267771      0.221173
Mn	      6.39673      6.25605     -4.17462        -0.095529      0.053676      0.012941
Mn	      8.54672      2.04846     -2.10986         0.062484     -0.194288      0.367752
Mn	     10.60817      4.15484     -6.26792         0.100663     -0.017731     -0.095861
O	      4.15848     -0.18787     -2.21561        -0.032230     -0.124459     -0.064750
O	      6.52143      1.86354     -6.22980        -0.205721     -0.142224     -0.108840
O	      8.52727     -2.34419     -4.22460         0.020269     -0.511673      0.005170
O	     10.77599     -0.07439     -8.31608         0.168992     -0.004403     -0.095440
O	      6.45665      3.99157     -0.00357         0.016018     -0.016469      0.139532
O	      8.63339      6.06694     -4.11702        -0.025756      0.177135      0.056910
O	     10.81969      1.93205     -2.11442         0.189416     -0.121015      0.066892
O	     12.91333      3.99500     -6.27460         0.145874      0.043301     -0.051726
O	      6.23314      2.02235     -1.90685         0.020788      0.043658      0.191698
O	      8.42186      3.97605     -6.06856        -0.058088      0.194709     -0.140828
O	     10.68124     -0.17768     -4.06222         0.113979     -0.048258     -0.017396
O	     12.70708      1.93509     -8.22191         0.138739     -0.002005     -0.242821
O	      8.35724      6.09791      0.12139         0.022039      0.150562     -0.112637
O	     10.54335      8.16838     -3.97485        -0.003338      0.247942     -0.118849
O	     12.81784      4.00786     -1.98467         0.263765     -0.069664      0.023319
O	     14.78482      5.98862     -6.19465         0.333386     -0.024449     -0.011531
O	      4.22213      2.21889     -4.26781        -0.060995     -0.129582      0.007188
O	      6.50959      4.27738     -8.28347        -0.074024     -0.068738     -0.216798
O	      8.62034      0.08918     -6.37523        -0.029009     -0.203797      0.036836
O	     10.65135      2.04255    -10.55764        -0.007301     -0.187708     -0.426978
O	      6.44243      6.42489     -2.20642        -0.026570     -0.122644      0.138691
O	      8.57031      8.42098     -6.26991         0.090390      0.040084     -0.115932
O	     10.69260      4.29050     -4.29166         0.042268     -0.186086      0.167393
O	     12.81115      6.31000     -8.44678         0.154116      0.054727     -0.149839
O	      6.20755      4.30819     -4.14766         0.024441     -0.128391     -0.010901
O	      8.49464      0.12994     -2.09723         0.058791     -0.238990      0.131613
O	     10.48727      2.20558     -6.22337         0.123680     -0.159935      0.020758
O	      6.21438      6.26795      2.08303         0.099261      0.102879      0.087463
O	      8.30621      8.51330     -1.97746         0.155771      0.184473      0.102302
O	     10.47050      4.26154     -0.01879         0.084732     -0.130331      0.148094
O	     12.67120      6.38381     -4.08642         0.036233      0.113328      0.114096
O	      4.23660      4.01823     -6.33232        -0.126775      0.082076     -0.104593
O	      6.38667     -0.15058     -4.26730        -0.067543     -0.249760     -0.164776
O	      8.50657      1.92034     -8.46478        -0.080794      0.007032     -0.362399
O	      4.32787      6.34630     -0.11142        -0.082533      0.216855      0.352325
O	      6.42412      8.21628     -4.27456        -0.059541      0.199591      0.116865
O	      8.51853      4.00910     -2.19104         0.012661      0.187122      0.163384
O	     10.58287      6.10451     -6.36576        -0.022210      0.230640      0.082691
O	      4.20186      4.32149     -2.00165        -0.104392     -0.007650     -0.101348
O	      6.43973      6.34972     -6.11820        -0.028102     -0.126033     -0.120496
O	      8.46339      2.15191     -4.03832         0.006452     -0.137971     -0.160017
O	     10.50039      4.26389     -8.22424         0.007722     -0.090417     -0.155174
O	      8.48073     10.55876     -3.99294         0.043658     -0.007531      0.103779
O	     10.56359      6.35986     -1.93349        -0.024270     -0.181718     -0.018543
O	     12.70305      8.40362     -6.09106         0.096964      0.188712     -0.014422
