# total energy = -608.46889023 eV
 
CRYSTAL
PRIMVEC
4.272386 8.530865 4.251250 
8.653597 -4.320616 -4.260300 
4.318215 4.204202 -8.428802 
PRIMCOORD
93 1
Li	      4.49446      2.05915     -2.42484         0.050131     -0.054208     -0.075114
Li	      6.55626      4.23267     -6.39656         0.044635     -0.001898      0.075162
Li	      8.71556     -0.04279     -4.21787        -0.019507      0.129719     -0.000065
Li	     10.88262      1.99427     -8.53251         0.002910     -0.026570      0.059943
Li	      6.50544      6.14006      0.02110         0.014612     -0.019270      0.000066
Li	      8.70830      8.54481     -4.24529         0.034254     -0.043672      0.013298
Li	     10.83816      4.14784     -2.09182        -0.071553      0.051215     -0.004906
Li	     13.08212      6.30839     -6.37151        -0.051500     -0.036307     -0.009922
Li	      4.50454     -0.06894     -4.27077         0.034705     -0.049630      0.032553
Li	      6.52126      2.09657     -8.44343        -0.066517     -0.053723      0.019133
Li	     12.82092      6.29060     -2.08509        -0.098030      0.033256     -0.103711
Li	     10.85907      0.02618    -10.63378         0.005304      0.039541      0.073218
Li	      6.43907      4.14004     -2.14641         0.011707     -0.011246     -0.043891
Li	      8.69565      6.45646     -6.12217         0.028491      0.012733      0.078702
Li	     10.89526      2.10007     -4.23083         0.012068      0.074270     -0.083273
Li	     13.05732      4.15582     -8.55022        -0.013113     -0.017161      0.054714
Li	      6.50522      2.11749     -4.29977         0.003506      0.044226      0.009733
Li	      8.59237      3.96417     -8.48488         0.009636      0.009239      0.040636
Li	     10.85916      0.18510     -6.36603        -0.039710      0.068866     -0.019039
Li	     12.92167      2.06986    -10.63899        -0.049476      0.007424      0.170880
Li	      8.60786      6.36973     -2.10325         0.017030     -0.039672     -0.013003
Li	     10.78059      8.52680     -6.30220        -0.067526     -0.015380      0.016838
Li	     12.82406      4.12726     -4.23867        -0.088571     -0.031639     -0.021307
Li	     15.15310      6.37728     -8.48078        -0.060762      0.008727      0.060885
Mn	      8.63855      4.19086     -4.19998         0.016215     -0.024186      0.015905
Mn	      6.58453      2.11709     -0.03838        -0.117907     -0.213808      0.449431
Mn	      4.36742      6.40198     -2.10592        -0.162334      0.149071      0.318066
Mn	      2.19012      4.30597      2.09829         0.119692     -0.457935      0.285150
Mn	      6.52258     -0.04395     -6.31122        -0.075828     -0.530715     -0.245722
Mn	      8.55209      6.35639      2.11251        -0.041527     -0.165450     -0.687015
Mn	     10.79226     -2.14798     -8.49616        -0.030744      0.155079      0.210101
Mn	      0.03334      0.03149      0.00625        -0.103374     -1.152070      0.165578
Mn	      2.07549      2.12731      0.07112         0.464164      0.087586     -0.077925
Mn	      4.29861      4.31201     -4.23548         0.341880     -0.236280     -0.129129
Mn	      6.48480     -0.04845     -2.13269         0.055262      0.181111     -0.045743
Mn	      8.67274      2.07158     -6.34431         0.144966      0.079444      0.074159
Mn	      4.36878      6.38181      2.13353         0.449754     -0.132130     -0.192220
Mn	      6.48327      8.53253     -2.22021         0.286538     -0.411383     -0.147915
Mn	      8.66244      4.22105     -0.00573         0.092357      0.299339     -0.153175
Mn	     10.83876      6.35428     -4.19975        -0.157012     -0.075933      0.041234
Mn	      2.21047     -0.02784     -2.06724         0.343332      0.146456     -0.284790
Mn	      4.32487      2.11434     -6.36318         0.229866      0.469692      0.087657
Mn	      6.55219     -2.15981     -4.24607        -0.334892     -0.241840     -0.671971
Mn	      8.72900     -0.03453     -8.50685         0.077799      0.290540      0.241180
Mn	      4.38127      4.33301     -0.00399         0.161792      0.137076     -0.263886
Mn	      6.52596      6.38243     -4.25895         0.124739     -0.054296     -0.059214
Mn	      8.71937      2.08984     -2.15248        -0.069232      0.191472     -0.346714
Mn	     10.82247      4.23877     -6.39454        -0.101991      0.027406      0.003212
O	      4.24249     -0.19166     -2.26036         0.050697      0.162358      0.076313
O	      6.65317      1.90118     -6.35565         0.164532      0.173916      0.105916
O	      8.69954     -2.39155     -4.30994        -0.107438      0.686218      0.008463
O	     10.99368     -0.07590     -8.48407        -0.138259      0.132125      0.060418
O	      6.58708      4.07221     -0.00364         0.092376      0.002623     -0.143418
O	      8.80780      6.18950     -4.20019         0.043532     -0.128409     -0.021456
O	     11.03826      1.97108     -2.15713        -0.153590      0.175672     -0.061112
O	     13.17419      4.07570     -6.40137        -0.163097     -0.023902      0.020009
O	      6.35905      2.06320     -1.94537         0.010063      0.057642     -0.153009
O	      8.59199      4.05637     -6.19115         0.034332     -0.162684      0.118512
O	     10.89702     -0.18127     -4.14429        -0.181404      0.146906      0.021069
O	     12.96379      1.97418     -8.38800        -0.150319      0.060489      0.193155
O	      8.52607      6.22110      0.12385        -0.022762     -0.148228      0.052750
O	     10.75634      8.33339     -4.05514        -0.006229     -0.219687      0.073732
O	     13.07677      4.08881     -2.02476        -0.361420      0.105272     -0.022034
O	     15.08349      6.10960     -6.31979        -0.346681      0.060498     -0.101298
O	      4.30744      2.26371     -4.35404         0.103686      0.095310     -0.002236
O	      6.64109      4.36378     -8.45081         0.045980     -0.022673      0.310294
O	      8.79449      0.09099     -6.50402        -0.000829      0.187577     -0.023148
O	     10.86652      2.08381    -10.77092         0.036863      0.063287      0.511547
O	      6.57258      6.55468     -2.25100         0.033146      0.145197     -0.130733
O	      8.74344      8.59109     -6.39658        -0.062958     -0.047814      0.227422
O	     10.90861      4.37718     -4.37836        -0.036764      0.175109     -0.108735
O	     13.06994      6.43748     -8.61741        -0.131104     -0.069457      0.186333
O	      6.33295      4.39523     -4.23144        -0.038055      0.117221      0.022930
O	      8.66625      0.13257     -2.13960         0.004103      0.180143     -0.121019
O	     10.69913      2.25012     -6.34909        -0.119162      0.146465     -0.035248
O	      6.33992      6.39457      2.12510        -0.107043     -0.148200     -0.079049
O	      8.47401      8.68528     -2.01741        -0.154751     -0.201162     -0.127514
O	     10.68202      4.34763     -0.01917        -0.066303      0.084342     -0.147992
O	     12.92718      6.51278     -4.16898        -0.103107     -0.125387     -0.106488
O	      4.32219      4.09940     -6.46025         0.125774     -0.028543      0.081865
O	      6.51570     -0.15362     -4.35351         0.093075      0.253384      0.145810
O	      8.67841      1.95914     -8.63578         0.056015     -0.008562      0.401887
O	      4.41531      6.47451     -0.11367         0.066055     -0.138817     -0.307091
O	      6.55390      8.38226     -4.36092         0.063657     -0.151872     -0.073244
O	      8.69062      4.09009     -2.23530         0.021055     -0.177342     -0.162449
O	     10.79666      6.22784     -6.49436         0.033965     -0.218548     -0.124139
O	      4.28674      4.40878     -2.04209         0.097450      0.063466      0.017483
O	      6.56982      6.47799     -6.24179         0.006634      0.073837      0.166684
O	      8.63437      2.19538     -4.11991         0.006376      0.111266      0.132265
O	     10.71252      4.35003     -8.39038         0.011154      0.099902      0.216980
O	      8.65205     10.77206     -4.07361        -0.040726     -0.050459     -0.080653
O	     10.77699      6.48833     -1.97254         0.030889      0.111887      0.011947
O	     12.95967      8.57339     -6.21411        -0.095645     -0.197456      0.050503
