# total energy = -607.51369392 eV
 
CRYSTAL
PRIMVEC
4.293642 8.573307 4.272400 
8.696650 -4.342112 -4.281496 
4.339698 4.225118 -8.470737 
PRIMCOORD
93 1
Li	      4.53929      2.07969     -2.44903         0.122026     -0.058568     -0.147532
Li	      6.62166      4.27490     -6.46037         0.080136     -0.033505      0.150326
Li	      8.80250     -0.04322     -4.25995        -0.041671      0.252143      0.008190
Li	     10.99117      2.01416     -8.61762         0.018972     -0.049090      0.126613
Li	      6.57033      6.20131      0.02131         0.034899     -0.037811      0.009741
Li	      8.79517      8.63004     -4.28765         0.069646     -0.104552      0.023567
Li	     10.94627      4.18921     -2.11268        -0.151062      0.117510     -0.011941
Li	     13.21262      6.37131     -6.43508        -0.095263     -0.064239     -0.020322
Li	      4.54946     -0.06962     -4.31336         0.078132     -0.078929      0.059024
Li	      6.60766      2.16013     -8.50639        -0.138005     -0.133017      0.028822
Li	     12.94882      6.35335     -2.10589        -0.209501      0.079537     -0.206821
Li	     10.96739      0.02644    -10.73986         0.009396      0.076665      0.143328
Li	      6.50331      4.18133     -2.16783         0.036454     -0.017702     -0.089185
Li	      8.78238      6.52087     -6.18324         0.055373     -0.007608      0.181298
Li	     11.00395      2.12102     -4.27304         0.020092      0.163209     -0.146460
Li	     13.18757      4.19727     -8.63551        -0.032963     -0.033379      0.112387
Li	      6.57012      2.13860     -4.34267         0.013367      0.086109      0.001992
Li	      8.67808      4.00371     -8.56952         0.001573      0.022129      0.089961
Li	     10.96748      0.18695     -6.42953        -0.083517      0.148529     -0.039350
Li	     13.05057      2.09051    -10.74511        -0.102505      0.008215      0.346795
Li	      8.69373      6.43328     -2.12424         0.026566     -0.060920     -0.034480
Li	     10.88813      8.61186     -6.36506        -0.140226     -0.032024      0.045354
Li	     12.95198      4.16843     -4.28094        -0.195668     -0.070699     -0.036591
Li	     15.30426      6.44089     -8.56538        -0.131749      0.014582      0.114186
Mn	      8.72471      4.23266     -4.24187         0.055582     -0.006956      0.032496
Mn	      6.67181      2.15924     -0.08091        -0.168521     -0.401283      0.920709
Mn	      4.45426      6.44424     -2.14822        -0.340391      0.292255      0.565767
Mn	      2.23355      4.36994      2.07708         0.214878     -0.872759      0.557794
Mn	      6.60901     -0.00173     -6.35292        -0.137809     -1.075978     -0.492655
Mn	      4.34376     -2.15352     -2.13883        -0.109198     -0.365219     -1.486301
Mn	     10.89990     -2.16941     -8.58090        -0.062234      0.370905      0.357833
Mn	      0.07662      0.09548     -0.01458        -0.243162     -2.621757      0.310847
Mn	      2.09620      2.14853      0.07182         0.882377      0.177138     -0.094452
Mn	      4.34149      4.35502     -4.27773         0.695222     -0.440093     -0.252337
Mn	      6.54949     -0.04894     -2.15396         0.131575      0.344839     -0.094688
Mn	      8.75925      2.09224     -6.40759         0.276571      0.161541      0.148845
Mn	      4.41236      6.44547      2.15482         0.927788     -0.260947     -0.389796
Mn	      6.54794      8.61764     -2.24235         0.570465     -0.815681     -0.344746
Mn	      8.74885      4.26315     -0.00579         0.201003      0.555947     -0.302566
Mn	     10.94688      6.41766     -4.24164        -0.313235     -0.132617      0.090904
Mn	      2.23252     -0.02811     -2.08785         0.732820      0.215259     -0.515598
Mn	      4.36802      2.13543     -6.42665         0.497260      0.927842      0.171251
Mn	      6.63891     -2.13870     -4.26717        -0.658251     -0.512537     -1.464578
Mn	      8.81607     -0.03487     -8.59171         0.125967      0.588151      0.472823
Mn	      4.42497      4.37624     -0.00403         0.336897      0.322261     -0.505723
Mn	      6.59105      6.44609     -4.30144         0.234190     -0.116185     -0.092454
Mn	      8.80635      2.11070     -2.17395        -0.128545      0.373792     -0.693666
Mn	     10.93043      4.28106     -6.45832        -0.191489      0.040940      0.062865
O	      4.28480     -0.19357     -2.28290         0.084976      0.360303      0.157557
O	      6.71954      1.92015     -6.41905         0.315844      0.376208      0.201523
O	      8.78631     -2.41541     -4.35294        -0.194113      1.701102     -0.013588
O	     11.10334     -0.07665     -8.56870        -0.323954      0.213648      0.135999
O	      6.65279      4.11283     -0.00369         0.120530      0.014216     -0.282813
O	      8.89566      6.25124     -4.24209         0.042911     -0.257194     -0.061797
O	     11.14838      1.99074     -2.17866        -0.351933      0.343820     -0.123062
O	     13.30560      4.11635     -6.46522        -0.347171     -0.032179      0.053065
O	      6.42248      2.08379     -1.96477        -0.005765      0.069962     -0.365099
O	      8.67771      4.09683     -6.25291         0.068849     -0.312030      0.209355
O	     11.00571     -0.18308     -4.18562        -0.317838      0.225839      0.026461
O	     13.09310      1.99387     -8.47167        -0.304472      0.096263      0.378069
O	      8.61111      6.28315      0.12509        -0.055669     -0.272664      0.096103
O	     10.86363      8.41652     -4.09559         0.000497     -0.406358      0.143625
O	     13.20721      4.12960     -2.04496        -0.731640      0.209865     -0.050727
O	     15.23394      6.17054     -6.38283        -0.719771      0.106269     -0.144322
O	      4.35040      2.28629     -4.39747         0.191893      0.180699      0.019681
O	      6.70734      4.40731     -8.53510         0.104469      0.028564      0.570927
O	      8.88222      0.09189     -6.56890         0.015960      0.350008     -0.032529
O	     10.97492      2.10460    -10.87836         0.075881      0.207875      1.163164
O	      6.63814      6.62007     -2.27345         0.070703      0.256753     -0.235013
O	      8.83066      8.67679     -6.46038        -0.133715     -0.088596      0.409718
O	     11.01742      4.42084     -4.42204        -0.066789      0.316936     -0.225486
O	     13.20032      6.50169     -8.70338        -0.259987     -0.131821      0.378836
O	      6.39612      4.43907     -4.27366        -0.058618      0.206081      0.044585
O	      8.75269      0.13389     -2.16095        -0.010395      0.359433     -0.247620
O	     10.80586      2.27257     -6.41243        -0.208815      0.266623     -0.060219
O	      6.40316      6.45835      2.14630        -0.186706     -0.267434     -0.153188
O	      8.55854      8.77192     -2.03753        -0.282684     -0.418010     -0.223889
O	     10.78857      4.39100     -0.01937        -0.107533      0.169209     -0.323329
O	     13.05614      6.57774     -4.21057        -0.132766     -0.278708     -0.214018
O	      4.36530      4.14030     -6.52469         0.252539     -0.051018      0.182180
O	      6.58069     -0.15516     -4.39693         0.164786      0.528542      0.308668
O	      8.76498      1.97868     -8.72192         0.125846      0.001016      0.921402
O	      4.45935      6.53910     -0.11480         0.154887     -0.303638     -0.527072
O	      6.61927      8.46587     -4.40441         0.121793     -0.297934     -0.163830
O	      8.77730      4.13088     -2.25759         0.013769     -0.333847     -0.296938
O	     10.90436      6.28996     -6.55914         0.069599     -0.407985     -0.213812
O	      4.32950      4.45276     -2.06246         0.203206      0.092184      0.064666
O	      6.63536      6.54260     -6.30406         0.018089      0.154409      0.268942
O	      8.72049      2.21728     -4.16100         0.005325      0.198428      0.251593
O	     10.81937      4.39341     -8.47408         0.004184      0.173629      0.376175
O	      8.73836     10.87952     -4.11425        -0.079942     -0.114211     -0.182248
O	     10.88449      6.55306     -1.99222         0.063925      0.221750      0.017222
O	     13.08895      8.65891     -6.27609        -0.184448     -0.391444      0.089613
