# total energy = -600.47066384 eV
 
CRYSTAL
PRIMVEC
4.357409 8.700633 4.335852 
8.825808 -4.406599 -4.345082 
4.404149 4.287867 -8.596540 
PRIMCOORD
93 1
Li	      4.67513      2.14192     -2.52232         0.456304     -0.007197     -0.338890
Li	      6.81980      4.40281     -6.65368         0.195529     -0.128345      0.410127
Li	      9.06591     -0.04450     -4.38742        -0.118959      0.662492      0.030985
Li	     11.32007      2.07443     -8.87549         0.077285     -0.090964      0.325273
Li	      6.76694      6.38687      0.02195         0.075144     -0.123712     -0.011147
Li	      9.05835      8.88829     -4.41595         0.178506     -0.296424      0.046404
Li	     11.27383      4.31457     -2.17591        -0.420714      0.315685     -0.048615
Li	     13.60799      6.56196     -6.62763        -0.249690     -0.144435     -0.070924
Li	      4.68560     -0.07171     -4.44244         0.271734     -0.186616      0.082217
Li	      6.87011      2.35398     -8.69655        -0.358894     -0.401950      0.122835
Li	      8.97888     -2.15717     -6.50476        -0.631186      0.268899     -0.511972
Li	     11.29557      0.02723    -11.06123         0.030105      0.174412      0.451974
Li	      6.69790      4.30645     -2.23269         0.096907     -0.022181     -0.207580
Li	      9.04518      6.71600     -6.36827         0.128235     -0.091010      0.463661
Li	     11.33322      2.18449     -4.40090         0.031124      0.427613     -0.351824
Li	     13.58219      4.32287     -8.89392        -0.104587     -0.088082      0.313007
Li	      6.76671      2.20259     -4.47261         0.066816      0.204121     -0.006138
Li	      8.93775      4.12351     -8.82596         0.035796      0.085459      0.286588
Li	     11.29567      0.19255     -6.62193        -0.233379      0.465295     -0.053849
Li	     13.44108      2.15307    -11.06665        -0.299610      0.051839      1.007427
Li	      8.95387      6.62578     -2.18779         0.068460     -0.147384     -0.108875
Li	     11.21394      8.86955     -6.55553        -0.331063     -0.115750      0.137823
Li	     13.33955      4.29315     -4.40905        -0.577255     -0.207794     -0.112264
Li	     15.76222      6.63363     -8.82168        -0.384988      0.036407      0.329915
Mn	      8.98579      4.35932     -4.36880         0.158027      0.067672      0.040625
Mn	      6.93686      2.28753     -0.21100        -0.253014     -0.822464      2.370612
Mn	      4.71862      6.57162     -2.27703        -0.915327      0.620216      0.982182
Mn	      2.36580      4.56439      2.01156         0.345909     -2.098818      1.248770
Mn	      6.87148      0.12743     -6.47862        -0.242813     -2.737736     -1.139881
Mn	      4.53844     -2.08874     -2.13843        -0.340862     -1.159506     -4.593767
Mn	      2.40026      2.17228     -4.49259        -0.193263      1.102987      0.578636
Mn	      0.20904      0.29123     -0.07829        -0.868715    -10.263788      0.835422
Mn	      2.15892      2.21283      0.07397         2.275733      0.668006      0.090568
Mn	      4.47140      4.48534     -4.40573         1.909523     -0.834372     -0.550743
Mn	      6.74548     -0.05040     -2.21842         0.441399      0.784909     -0.249471
Mn	      9.02136      2.15485     -6.59933         0.663222      0.405692      0.395447
Mn	      4.54440      6.63834      2.21930         2.272618     -0.726722     -0.947774
Mn	      6.74389      8.87551     -2.30945         1.355670     -2.058049     -0.995080
Mn	      9.01065      4.39072     -0.00596         0.450992      1.147721     -0.724394
Mn	     11.27445      6.60971     -4.36856        -0.781652     -0.305073      0.232665
Mn	      2.29933     -0.02895     -2.15033         2.283550      0.107574     -1.102196
Mn	      4.49872      2.19933     -6.61895         1.633170      2.258642      0.287555
Mn	      6.90228     -2.07348     -4.33046        -1.562170     -1.297676     -4.854867
Mn	      9.07988     -0.03591     -8.84880         0.175623      1.551205      1.082337
Mn	      4.55738      4.50719     -0.00415         0.894148      0.839657     -1.251091
Mn	      6.78828      6.63898     -4.43016         0.550183     -0.353407     -0.161412
Mn	      9.06987      2.17385     -2.23901        -0.288490      0.823939     -1.730208
Mn	     11.25750      4.40916     -6.65158        -0.425517      0.011173      0.256276
O	      4.41302     -0.19937     -2.35122        -0.029036      1.287275      0.362423
O	      6.92062      1.97761     -6.61113         0.505385      1.188989      0.439082
O	      9.04923     -2.48768     -4.48319        -0.468841      7.985800     -0.320174
O	     11.43559     -0.07894     -8.82511        -1.075098      0.385470      0.370354
O	      6.85187      4.23590     -0.00379         0.108972      0.042309     -0.707470
O	      9.16185      6.43830     -4.36902        -0.037014     -0.533290     -0.151039
O	     11.48198      2.05030     -2.24385        -0.961157      1.019097     -0.268259
O	     13.70376      4.23953     -6.65868        -0.953132      0.187514      0.193717
O	      6.61467      2.14614     -2.02356        -0.171238      0.122920     -1.150147
O	      8.93737      4.21942     -6.44002         0.112281     -0.553695      0.366173
O	     11.33504     -0.18856     -4.31088        -0.675802      0.298467     -0.103396
O	     13.48489      2.05354     -8.72517        -0.802004      0.167402      0.667229
O	      8.86878      6.47116      0.12883        -0.186274     -0.453069      0.154296
O	     11.18872      8.66837     -4.21814         0.047571     -0.824232      0.259634
O	      4.77661      8.65978      2.23894        -2.063713      0.715141     -0.264521
O	     15.68980      6.35518     -6.57383        -2.016433      0.279085     -0.140916
O	      4.48058      2.35471     -4.52906         0.389571      0.286674      0.323018
O	      6.90804      4.53920     -8.79050         0.290184      0.316153      1.167749
O	      9.14800      0.09465     -6.76546         0.097513      0.598601      0.008199
O	     11.30333      2.16757    -11.20388         0.216333      0.599292      4.232485
O	      6.83678      6.81816     -2.34149         0.263139      0.539032     -0.404005
O	      9.09490      8.93642     -6.65370        -0.284739     -0.187981      0.956607
O	     11.34710      4.55313     -4.55436        -0.116725      0.621809     -0.494029
O	      9.19117      2.40837     -0.36727        -0.572600     -0.297236      1.074926
O	      6.58751      4.57190     -4.40153        -0.090222      0.355800      0.111258
O	      9.01460      0.13790     -2.22561        -0.037546      0.763917     -0.666059
O	     11.12921      2.34058     -6.60432        -0.343545      0.571173     -0.156190
O	      6.59477      6.65161      2.21053        -0.314225     -0.504300     -0.351067
O	      8.81464      9.03440     -2.09851        -0.584692     -1.171732     -0.413878
O	     11.11140      4.52239     -0.01994        -0.074027      0.376635     -0.984537
O	     13.44681      6.77457     -4.33656         0.006114     -0.989093     -0.444941
O	      4.49592      4.26419     -6.71993         0.639842     -0.021417      0.485007
O	      6.77761     -0.15979     -4.52851         0.294842      1.463270      0.793254
O	      9.02726      2.03789     -8.98291         0.349943      0.012411      3.296988
O	      4.59279      6.73477     -0.11823         0.451062     -0.695279     -0.664579
O	      6.81734      8.71921     -4.53621         0.305960     -0.643358     -0.319666
O	      9.03996      4.25450     -2.32515         0.000425     -0.697836     -0.607713
O	     11.23066      6.47818     -6.75541         0.164796     -0.852661     -0.421844
O	      4.45906      4.58600     -2.12418         0.479275     -0.097301      0.184182
O	      6.83391      6.73838     -6.49269         0.027237      0.263550      0.399121
O	      8.98144      2.28362     -4.28551        -0.001895      0.365112      0.538000
O	     11.14313      4.52488     -8.72765        -0.048259      0.315176      0.748558
O	      8.99984     11.20508     -4.23736        -0.183614     -0.458702     -0.596384
O	     11.21019      6.74915     -2.05184         0.200685      0.403466     -0.031756
O	     13.48061      8.91801     -6.46389        -0.398864     -0.922518      0.243936
