# total energy = -596.58246027 eV
 
CRYSTAL
PRIMVEC
4.378665 8.743076 4.357002 
8.868861 -4.428094 -4.366278 
4.425633 4.308784 -8.638474 
PRIMCOORD
93 1
Li	      4.72085      2.16287     -2.54698         0.727586      0.085913     -0.354906
Li	      6.88650      4.44588     -6.71876         0.239176     -0.145662      0.522421
Li	      9.15457     -0.04494     -4.43033        -0.142620      0.815447      0.046265
Li	     11.43078      2.09472     -8.96229         0.117169     -0.081506      0.404085
Li	      6.83312      6.44934      0.02216         0.070894     -0.235935     -0.051539
Li	      9.14694      8.97521     -4.45914         0.206629     -0.370955      0.037776
Li	     11.38408      4.35677     -2.19718        -0.536320      0.368636     -0.071094
Li	     13.74108      6.62614     -6.69245        -0.333022     -0.181094     -0.119425
Li	      4.73143     -0.07241     -4.48589         0.485649     -0.271954      0.040135
Li	      6.95866      2.41965     -8.76035        -0.437029     -0.525546      0.186151
Li	      9.08806     -2.13562     -6.54712        -0.902433      0.389609     -0.574348
Li	     11.40605      0.02750    -11.16941         0.039233      0.208054      0.600893
Li	      6.76341      4.34857     -2.25453         0.110151     -0.017117     -0.243714
Li	      9.13364      6.78167     -6.43055         0.140938     -0.122770      0.553178
Li	     11.44406      2.20586     -4.44395         0.030130      0.521725     -0.415638
Li	     13.71502      4.36514     -8.98090        -0.121006     -0.111339      0.386505
Li	      6.83289      2.22414     -4.51635         0.117703      0.247076     -0.007707
Li	      9.02516      4.16384     -8.91227         0.072258      0.111251      0.404337
Li	     11.40614      0.19443     -6.68668        -0.277578      0.651237     -0.029181
Li	     13.57253      2.17412    -11.17488        -0.365057      0.095926      1.299058
Li	      9.04144      6.69058     -2.20920         0.079936     -0.193404     -0.150499
Li	     11.32361      8.95630     -6.61964        -0.398985     -0.160050      0.173210
Li	     13.47001      4.33514     -4.45217        -0.882403     -0.328923     -0.184801
Li	     15.91637      6.69851     -8.90796        -0.496993      0.032342      0.391530
Mn	      9.07368      4.40196     -4.41153         0.185057      0.107065      0.021643
Mn	      7.02629      2.33092     -0.25521        -0.248604     -0.923989      2.880575
Mn	      4.80803      6.61430     -2.32061        -1.103981      0.656795      1.014446
Mn	      2.41053      4.63004      1.98910         0.300871     -2.497412      1.407753
Mn	      6.96005      0.17133     -6.52073        -0.237564     -3.291999     -1.333665
Mn	      4.60420     -2.06652     -2.13809        -0.402959     -1.534091     -5.956552
Mn	      2.46700      2.17192     -4.55783        -0.198944      1.680087      0.282505
Mn	      0.25403      0.35775     -0.09994        -1.189491    -14.706103      1.116704
Mn	      2.18003      2.23447      0.07470         2.813883      1.002610      0.363407
Mn	      4.51513      4.52921     -4.44882         2.479884     -0.764723     -0.579660
Mn	      6.81145     -0.05089     -2.24012         0.630209      0.924947     -0.295377
Mn	      9.10959      2.17593     -6.66388         0.805114      0.503309      0.504107
Mn	      4.58883      6.70326      2.24100         2.567709     -0.998176     -1.126217
Mn	      6.80984      8.96232     -2.33203         1.560481     -2.591510     -1.559717
Mn	      9.09877      4.43366     -0.00602         0.493792      1.261681     -0.879141
Mn	     11.38472      6.67435     -4.41128        -0.992994     -0.387566      0.270809
Mn	      2.32181     -0.02924     -2.17136         3.089834     -0.262100     -0.992611
Mn	      4.54272      2.22085     -6.68369         2.210647      2.693483      0.198341
Mn	      6.99116     -2.05111     -4.35157        -1.829345     -1.521542     -6.486946
Mn	      9.16868     -0.03627     -8.93534         0.127151      1.975791      1.265123
Mn	      4.60195      4.55126     -0.00419         1.081886      1.019166     -1.501465
Mn	      6.85467      6.70391     -4.47347         0.651025     -0.477034     -0.164891
Mn	      9.15857      2.19511     -2.26091        -0.323947      0.932315     -2.088447
Mn	     11.36760      4.45229     -6.71663        -0.492840     -0.041927      0.334759
O	      4.45618     -0.20131     -2.37422        -0.253293      1.871263      0.303911
O	      6.98829      1.99695     -6.67578         0.444275      1.529077      0.494698
O	      9.13773     -2.51201     -4.52704        -0.563174     11.980834     -0.574011
O	     11.54743     -0.07972     -8.91142        -1.462766      0.266684      0.445245
O	      6.91888      4.27732     -0.00383         0.072574      0.067082     -0.844491
O	      9.25145      6.50127     -4.41176        -0.118994     -0.602743     -0.165389
O	     11.59427      2.07036     -2.26579        -1.120089      1.382607     -0.292011
O	     13.83778      4.28099     -6.72381        -1.106122      0.482241      0.330874
O	      6.67936      2.16713     -2.04336        -0.293647      0.133196     -1.481161
O	      9.02478      4.26068     -6.50300         0.107321     -0.563721      0.369203
O	      2.57704      4.23770      0.01324        -0.747907      0.221875     -0.311026
O	     13.61677      2.07362     -8.81050        -0.993821      0.146232      0.594141
O	      8.95552      6.53445      0.13009        -0.270842     -0.397393      0.162805
O	     11.29814      8.75315     -4.25940         0.086042     -0.877278      0.270484
O	      4.86659      8.72287      2.23953        -2.590384      1.112932     -0.455454
O	     15.84324      6.41733     -6.63812        -2.587887      0.368251      0.074224
O	      4.52439      2.37773     -4.57335         0.326177      0.148130      0.642569
O	      6.97561      4.58359     -8.87647         0.362380      0.426137      1.176849
O	      9.23747      0.09556     -6.83163         0.158195      0.546760      0.031660
O	      6.98824     -2.12001     -2.67498         0.251572      0.671025      5.784381
O	      6.90364      6.88485     -2.36438         0.387589      0.682729     -0.291706
O	      9.18385      9.02382     -6.71877        -0.290224     -0.238751      1.111140
O	     11.45807      4.59766     -4.59890        -0.108202      0.663549     -0.552919
O	      9.30265      2.45295     -0.41300        -0.649313     -0.334860      1.363817
O	      6.65194      4.61662     -4.44458        -0.120040      0.307024      0.139872
O	      9.10277      0.13925     -2.24738        -0.074903      0.875874     -0.821608
O	     11.23805      2.36347     -6.66890        -0.336189      0.644522     -0.200087
O	      6.65926      6.71666      2.23214        -0.319312     -0.451108     -0.406773
O	      8.90085      9.12276     -2.11903        -0.674094     -1.475710     -0.359437
O	     11.22008      4.56662     -0.02014        -0.010136      0.441614     -1.270229
O	     13.57833      6.84082     -4.37897         0.295336     -1.478900     -0.406331
O	      4.53989      4.30589     -6.78566         0.769222     -0.002409      0.597535
O	      6.84389     -0.16136     -4.57279         0.286773      1.801546      0.949696
O	      9.11554      2.05782     -9.07076         0.437396     -0.015437      4.423187
O	      4.63771      6.80063     -0.11939         0.585643     -0.713378     -0.468256
O	      6.88401      8.80448     -4.58057         0.377386     -0.699260     -0.202034
O	      9.12836      4.29610     -2.34789        -0.012620     -0.779563     -0.670959
O	     11.34049      6.54153     -6.82147         0.210540     -0.940644     -0.477397
O	      4.50267      4.63086     -2.14494         0.509790     -0.430885      0.238327
O	      6.90074      6.80429     -6.55619         0.015843      0.219623      0.290622
O	      9.06928      2.30596     -4.32743        -0.010284      0.379468      0.614644
O	     11.25211      4.56914     -8.81301        -0.093859      0.343815      0.830555
O	      9.08786     11.31466     -4.27880        -0.211095     -0.602434     -0.782408
O	     11.31983      6.81515     -2.07190         0.267273      0.410095     -0.052906
O	     13.61245      9.00523     -6.52711        -0.453008     -1.059748      0.307978
