# total energy = -90.84483829 eV
 
CRYSTAL
PRIMVEC
4.146072 0.000721 0.001879 
-0.001940 0.000819 -4.092430 
2.073383 8.242780 -2.046695 
PRIMCOORD
16 1
Li	      2.07317      2.02609     -4.09549         0.000024      0.020731      0.001452
Li	      2.07300      6.23537     -4.09542        -0.000506     -0.001128     -0.002528
Li	      2.07242      0.17787     -2.04777         0.005940      0.029416     -0.001751
Li	      4.14726      1.97667     -2.04816        -0.001935      0.033556      0.003337
Mn	      4.14489      0.05309     -4.09304        -0.000045      0.105756      0.000046
Mn	      4.14629      4.02299     -4.09498        -0.000258     -0.020379      0.003433
Ni	      2.07480      4.09832     -2.04948        -0.007008      0.057695     -0.002656
Ni	      4.14709      6.22010     -2.04840         0.005064     -0.074598      0.004826
O	      4.14770      4.16425     -2.04879        -0.005238     -0.042440      0.002111
O	      2.07419      6.29349     -2.04919         0.000061      0.054278     -0.001322
O	      4.14663      2.04555     -4.09375        -0.001471     -0.112366     -0.005207
O	      2.07312      4.08961     -4.09594         0.002292     -0.034337      0.001470
O	      4.14760      8.20951     -2.04786        -0.006383      0.099789     -0.002352
O	      4.14637      5.92996     -4.09470        -0.000651      0.018486     -0.000127
O	      4.14537      0.01560     -2.04767         0.010188     -0.028506     -0.001260
O	      2.07384      2.16811     -2.04955        -0.000073     -0.105955      0.000527
