# total energy = -585.73094877 eV
 
CRYSTAL
PRIMVEC
4.421176 8.827960 4.399303 
8.954967 -4.471086 -4.408669 
4.468600 4.350617 -8.722343 
PRIMCOORD
93 1
Li	      4.81295      2.20506     -2.59667         0.770830      0.118028     -0.440013
Li	      7.02087      4.53262     -6.84986         0.293828     -0.191860      0.660681
Li	      9.33319     -0.04582     -4.51677        -0.185276      1.080455      0.045855
Li	     11.65381      2.13559     -9.13716         0.166208     -0.109468      0.520586
Li	      6.96645      6.57517      0.02259         0.082058     -0.277939     -0.096289
Li	      9.32541      9.15033     -4.54614         0.265177     -0.470143      0.042061
Li	     11.60620      4.44177     -2.24006        -0.697560      0.480034     -0.079681
Li	     14.00918      6.75543     -6.82303        -0.437724     -0.216387     -0.153391
Li	      4.82375     -0.07382     -4.57342         0.577536     -0.306335      0.089003
Li	      7.13735      2.55258     -8.88856        -0.584999     -0.659884      0.277061
Li	      9.30830     -2.09158     -6.63215        -1.018903      0.514241     -0.828568
Li	     11.62860      0.02803    -11.38735         0.060592      0.213201      1.081451
Li	      6.89538      4.43341     -2.29852         0.122631     -0.011642     -0.306735
Li	      9.31186      6.91400     -6.55602         0.165329     -0.170948      0.672270
Li	     11.66735      2.24889     -4.53065         0.028427      0.655740     -0.527122
Li	     13.98263      4.45031     -9.15614        -0.186637     -0.148522      0.562782
Li	      6.96621      2.26754     -4.60447         0.121298      0.313410      0.014363
Li	      9.20127      4.24508     -9.08617         0.069616      0.230201      0.528093
Li	     11.62869      0.19822     -6.81716        -0.387849      0.734114     -0.014257
Li	     13.83736      2.21654    -11.39292        -0.547362      0.174183      1.922300
Li	      9.21786      6.82112     -2.25230         0.106377     -0.259354     -0.168558
Li	     11.54455      9.13105     -6.74880        -0.496181     -0.209320      0.233389
Li	     13.73284      4.41973     -4.53904        -1.053430     -0.419665     -0.207229
Li	     16.22692      6.82921     -9.08177        -0.741381      0.058220      0.621222
Mn	      9.25072      4.48784     -4.49760         0.210577      0.082365      0.019884
Mn	      7.20677      2.41864     -0.34487        -0.259875     -1.015204      3.794107
Mn	      4.98879      6.69994     -2.40868        -1.418860      0.671885      1.084525
Mn	      2.50094      4.76262      1.94322         0.224623     -3.345904      1.645647
Mn	      7.13878      0.26037     -6.60526        -0.200751     -4.522223     -1.540196
Mn	      4.73695     -2.02114     -2.13710        -0.667771     -1.763932     -9.491067
Mn	      2.60207      2.17089     -4.68956        -0.313553      2.006716      0.755747
Mn	      0.34530      0.49268     -0.14387        -1.827578    -28.978156      1.812693
Mn	      2.22257      2.27806      0.07615         4.051724      1.444003      0.286213
Mn	      4.60323      4.61758     -4.53562         3.355316     -0.940568     -0.652564
Mn	      6.94435     -0.05189     -2.28383         0.794771      1.184404     -0.428703
Mn	      9.28733      2.21838     -6.79390         1.021107      0.603917      0.644956
Mn	      4.67837      6.83405      2.28473         3.446044     -1.186826     -1.349386
Mn	      6.94271      9.13718     -2.37754         2.049290     -3.297803     -1.956145
Mn	      9.27630      4.52017     -0.00614         0.591122      1.522035     -1.108230
Mn	     11.60685      6.80458     -4.49736        -1.191944     -0.478101      0.359928
Mn	      2.36712     -0.02980     -2.21373         4.956888     -0.190695     -1.388174
Mn	      4.63136      2.26418     -6.81409         3.370489      3.441651      0.164120
Mn	      7.17048     -2.00543     -4.39375        -2.296905     -1.766312    -10.788849
Mn	      9.34757     -0.03697     -9.10969         0.113769      2.680714      1.517819
Mn	      4.69175      4.64007     -0.00427         1.387252      1.254616     -2.028746
Mn	      6.98841      6.83472     -4.56076         0.778805     -0.641720     -0.235559
Mn	      9.33727      2.23794     -2.30502        -0.430512      1.078777     -2.779685
Mn	     11.58940      4.53916     -6.84769        -0.614367     -0.039768      0.394511
O	      4.54313     -0.20524     -2.42054        -0.337845      2.495267      0.432267
O	      7.12465      2.03590     -6.80604         0.373244      2.362306      0.548386
O	      9.31602     -2.56102     -4.61537        -0.823835     25.346826     -1.343779
O	     11.77275     -0.08128     -9.08529        -2.143433      0.448741      0.501233
O	      7.05388      4.36077     -0.00391        -0.004374      0.068063     -1.117747
O	      9.43196      6.62811     -4.49784        -0.093078     -0.649330     -0.205577
O	     11.82049      2.11075     -2.31001        -1.616145      1.954979     -0.333666
O	     14.10778      4.36452     -6.85500        -1.651865      0.728178      0.413053
O	      6.80970      2.20942     -2.08323        -0.443440      0.171376     -2.094434
O	      9.20087      4.34383     -6.62989         0.131114     -0.652652      0.400186
O	      2.71427      4.27697     -0.02930        -0.876909      0.270457     -0.314744
O	     13.88246      2.11407     -8.98242        -1.300598      0.213185      0.598194
O	      9.13025      6.66195      0.13263        -0.350049     -0.458577      0.060074
O	     11.51858      8.92394     -4.34251         0.117836     -1.197298      0.237915
O	      5.04849      8.84966      2.24042        -4.216752      1.545344     -0.564530
O	      7.19741     11.01364     -2.35898        -3.679142      0.461125     -0.011663
O	      4.61268      2.42413     -4.66259         0.615462      0.237319      0.833138
O	      2.64312      0.32240     -0.32733         0.428300      0.664514      1.586287
O	      9.41771      0.09743     -6.96493         0.164943      0.720454      0.138986
O	      7.16797     -2.11913     -2.81185         0.388018      0.595593      9.993054
O	      7.03834      7.01918     -2.41052         0.594384      0.773158     -0.295522
O	      4.89445      4.84928      1.87248        -0.324327     -0.434740      1.371089
O	     11.68165      4.68737     -4.68864        -0.125476      0.905977     -0.619559
O	      9.52754      2.54305     -0.50574        -0.760232     -0.344849      1.942666
O	      6.78173      4.70669     -4.53131        -0.053882      0.332683      0.186945
O	      9.28039      0.14197     -2.29123        -0.062343      1.061661     -1.133250
O	     11.45732      2.40958     -6.79902        -0.353275      0.814135     -0.262223
O	      6.78920      6.84772      2.27570        -0.364488     -0.632887     -0.519660
O	      9.07452      9.30076     -2.16037        -0.763524     -2.054921     -0.383646
O	     11.43900      4.65573     -0.02054         0.074307      0.553086     -2.024965
O	     13.84326      6.97430     -4.46441         0.227115     -2.132414     -0.582881
O	      4.62847      4.38991     -6.91805         1.042170      0.136515      0.767519
O	      6.97742     -0.16451     -4.66202         0.277774      2.527346      1.207738
O	      9.29340      2.09797     -9.24774         0.656379     -0.352042      7.662061
O	      4.72820      6.93333     -0.12172         0.728334     -0.852150     -0.283345
O	      7.01833      8.97627     -4.66994         0.524503     -0.849041     -0.249047
O	      9.30648      4.37993     -2.39370        -0.033058     -0.891771     -0.816663
O	     11.56176      6.66917     -6.95457         0.280903     -1.178341     -0.504908
O	      4.59052      4.72121     -2.18680         0.724932     -0.545592      0.314322
O	      7.03538      6.93705     -6.68411         0.035813      0.185614      0.353505
O	      9.24623      2.35095     -4.41186        -0.018298      0.432190      0.726535
O	     11.47166      4.65829     -8.98496        -0.127739      0.338050      1.069361
O	      9.26518     11.53542     -4.36229        -0.303455     -1.056754     -1.099361
O	     11.54070      6.94813     -2.11233         0.367706      0.382109     -0.201969
O	     13.87806      9.18094     -6.65447        -0.547946     -1.367127      0.436509
