# total energy = -608.76157613 eV
 
CRYSTAL
PRIMVEC
4.277702 8.488097 4.218351 
8.648408 -4.286055 -4.236584 
4.330498 4.177488 -8.358933 
PRIMCOORD
93 1
Li	      4.40353      2.08152     -2.34916        -0.004342     -0.017171     -0.005742
Li	      6.49394      4.13398     -6.29247         0.023444     -0.013516     -0.006026
Li	      8.67470     -0.08179     -4.22128         0.009071     -0.030358      0.002872
Li	     10.84772      1.73659     -8.39247        -0.008658     -0.017017     -0.026087
Li	      6.45314      6.34951     -0.00750        -0.007472      0.013491     -0.009184
Li	      8.66502      8.48238     -4.13560        -0.011461      0.016291     -0.003760
Li	     10.81213      4.17729     -2.10916        -0.011179      0.005094     -0.002847
Li	     13.13114      6.25490     -6.28809        -0.040000     -0.020225     -0.018416
Li	      8.58884      8.40405     -0.03616        -0.006078     -0.008535      0.006362
Li	      6.43909      2.10836     -8.34199         0.006657      0.011669     -0.020585
Li	     12.88543      6.30597     -2.06886        -0.002317      0.002251     -0.008487
Li	     15.10540      8.29978     -6.29729        -0.012704     -0.007668      0.001165
Li	      6.42879      4.33213     -2.10489         0.017896      0.018624      0.021981
Li	      8.50133      6.29762     -6.08604         0.015544      0.012012     -0.017492
Li	     10.85141      1.98501     -4.21264        -0.018375     -0.021781     -0.000431
Li	     13.14002      4.16006     -8.41220         0.004332      0.011729     -0.018460
Li	      6.47216      2.09750     -4.22720         0.005981      0.002884      0.016068
Li	      8.44753      3.90070     -8.35414         0.031895      0.002165      0.009113
Li	     10.82442     -0.03472     -6.29019         0.000640     -0.022361      0.000962
Li	     12.89215      1.99784    -10.51019         0.002413     -0.008177      0.023710
Li	      8.54710      6.37146     -2.08057         0.002347      0.026764      0.010588
Li	     10.73092      8.68605     -6.22763        -0.003523      0.005405      0.008278
Li	     12.84489      4.13952     -4.18994        -0.002801      0.013294      0.001859
Li	     15.09263      6.31553     -8.37663        -0.017901      0.022215      0.017092
Mn	      8.64373      4.15635     -4.15540        -0.015036     -0.032460     -0.002506
Mn	      6.55353      2.14920     -0.01174        -0.074682     -0.045035      0.087297
Mn	     12.88040      2.03934     -6.31485        -0.002621      0.015243     -0.001039
Mn	      6.51021      8.40815     -6.22602        -0.006574     -0.017910     -0.018767
Mn	     10.73262      8.43288     -2.05398         0.008080     -0.004463     -0.001063
Mn	     12.92236     10.50502     -6.23827        -0.001248     -0.025828     -0.005606
Mn	     10.80648     -2.19536     -8.39659        -0.008166     -0.027268      0.008510
Mn	     17.20199      8.36140     -8.35950         0.006666      0.011302      0.005869
Mn	      2.06717      2.10567     -0.00238         0.045959      0.011855     -0.000346
Mn	      4.34024      4.20274     -4.18770         0.008027     -0.034085      0.009675
Mn	      6.47243     -0.04848     -2.20288        -0.007237      0.021938      0.060616
Mn	      8.69166      1.99534     -6.27848         0.003632      0.000908     -0.004043
Mn	      4.28184      6.37227      2.11057         0.004030      0.004078      0.002778
Mn	      6.44149      8.44606     -2.06001        -0.033397      0.006248      0.003487
Mn	      8.58813      4.25881      0.00059        -0.044786     -0.005990     -0.005040
Mn	     10.76760      6.30598     -4.07119         0.002909      0.003089     -0.063271
Mn	      2.18108     -0.00316     -2.11168         0.006292      0.019928     -0.011307
Mn	      4.35060      2.09138     -6.29172         0.006668     -0.012627     -0.004704
Mn	      6.50366     -2.15225     -4.23318         0.001884      0.003933      0.009320
Mn	     12.92817      8.41423     -4.19594         0.005772      0.026369     -0.006298
Mn	      4.40251      4.30386      0.01446         0.013139     -0.052321      0.019616
Mn	      6.48099      6.30741     -4.18425         0.014077      0.024240      0.000436
Mn	      8.64856      2.08263     -2.12099        -0.007633      0.024013      0.011955
Mn	     10.78239      4.14511     -6.29499        -0.024682      0.032936     -0.052026
O	      4.49743     -0.19119     -2.05304        -0.000840      0.020534     -0.006744
O	      6.69765      1.93560     -6.30447        -0.011307     -0.020517      0.008213
O	      8.64886     -2.34278     -4.24417        -0.002994     -0.006559      0.003817
O	     10.96249     -0.23817     -8.41904         0.005050     -0.005908     -0.015893
O	      6.54690      4.18207      0.05534         0.046914      0.065010     -0.022949
O	      8.78494      6.13791     -4.18947        -0.016220      0.014521      0.009737
O	     10.92667      1.91552     -2.10590         0.003428      0.027320      0.005072
O	     12.79103      4.06000     -6.46943         0.001252      0.005111      0.024410
O	      6.34696      1.86081     -2.01536         0.003226     -0.028266     -0.063816
O	      8.70056      4.03481     -6.18789         0.011100     -0.005824      0.029940
O	     10.86049     -0.14973     -4.06854        -0.027873      0.054016     -0.023886
O	     12.86531      1.87784     -8.30611        -0.003031      0.005161     -0.009750
O	      8.51619      6.25709      0.15929         0.005832      0.023666     -0.028261
O	     10.70281      8.27282     -4.03451        -0.011691      0.015042     -0.002355
O	     12.85219      4.05089     -1.97296        -0.010873      0.013225      0.005950
O	     15.02961      6.24192     -6.14677         0.030784      0.066154      0.026019
O	      4.42867      2.23902     -4.32015         0.003735     -0.001202      0.014350
O	      6.59330      4.24592     -8.49189        -0.025991     -0.065590      0.003234
O	      8.72216      0.02129     -6.43610         0.015946     -0.016443      0.011312
O	     10.87403      2.17763    -10.59561         0.015591     -0.012018     -0.015192
O	      6.48693      6.38209     -2.22820         0.017539     -0.069424     -0.011034
O	      8.73475      8.55694     -6.29863         0.005997      0.015994      0.050920
O	     10.83716      4.39667     -4.20179         0.013543      0.000056      0.011230
O	     12.98153      6.38757     -8.47844         0.042863     -0.003477     -0.008367
O	      6.35897      4.34344     -4.21679        -0.005838     -0.012163      0.022014
O	      8.46155      0.11314     -2.06899         0.014023     -0.013107     -0.002969
O	     10.65353      2.04771     -6.32305        -0.022216     -0.023741     -0.000134
O	      6.28651      6.51762      2.12819         0.005459     -0.004910      0.008476
O	      8.58566      8.63605     -2.04841         0.040866      0.009795      0.000278
O	     10.60994      4.36083      0.01090         0.012366     -0.010556      0.008619
O	     12.74717      6.45213     -4.21328         0.008490     -0.019032     -0.007987
O	      2.26763      1.96930     -2.17636         0.003821      0.014531     -0.037357
O	      4.36481      4.07639     -6.38965         0.003385     -0.011531     -0.013310
O	      6.53281     -0.15193     -4.32390        -0.010589     -0.000706     -0.048531
O	      8.72409      1.91491     -8.50335        -0.002079      0.009038     -0.009769
O	      4.29738      6.40867     -0.13471        -0.022706      0.028817      0.012822
O	      6.48448      8.29169     -4.26478        -0.002984      0.010591     -0.023488
O	      8.60569      4.04702     -2.19700        -0.002383      0.011862     -0.007061
O	      4.32462      4.30440     -1.99658         0.005849      0.012746     -0.029357
O	      6.52642      6.41786     -6.17110        -0.004791      0.002430      0.020921
O	      8.63606      2.18378     -4.07557        -0.011791     -0.006977      0.003300
O	      6.41483      8.61054      0.13747         0.004122     -0.011122      0.022491
O	      8.58151     10.66948     -4.02579         0.006599     -0.020178      0.004865
O	     10.70965      6.43100     -1.96042        -0.009427      0.004543      0.050443
O	     12.84825      8.52356     -6.14835         0.003362     -0.006084      0.003703
