# total energy = -582.57376049 eV
 
CRYSTAL
PRIMVEC
4.051829 8.092124 4.010024 
8.226727 -4.108386 -4.018444 
4.107597 3.960091 -7.907833 
PRIMCOORD
94 1
Li	      3.93840      1.58576     -1.89680        -0.442450      0.124780     -0.164159
Li	      5.90013      3.70062     -5.66560        -0.713793      0.537190     -1.098698
Li	      7.79311     -0.14812     -3.81346         0.858966     -0.532848     -0.026057
Li	      9.82555      1.79034     -7.58616        -0.212804     -0.490659     -0.605625
Li	      6.00509      5.72506      0.00225        -1.240879     -0.165026      0.046108
Li	      7.77822      7.57340     -3.72704        -0.315563      1.128403     -0.214244
Li	      9.75622      3.82435     -1.85375         0.785991     -0.506489      0.134935
Li	     11.69662      5.63277     -5.66717         0.633516      0.581347     -0.243649
Li	      7.77566      7.53294      0.01078        -0.168642      0.356996      0.935845
Li	      5.84755      1.82957     -7.49978        -0.607858      0.558776     -0.740723
Li	      7.79295     -1.89356     -5.66397         0.506121     -1.594251      0.126715
Li	     13.62342      7.57225     -5.66651        -0.191252      0.519034      0.247231
Li	      6.01126      3.81580     -1.88528        -1.088010     -0.048849      0.245224
Li	      7.76792      5.51969     -5.62220        -0.344705      1.286896     -0.451161
Li	      9.55754      1.82401     -3.76825         1.410216     -0.805540      0.888131
Li	     11.70339      3.88166     -7.54353         0.394563     -0.619854     -0.564406
Li	      5.81225      1.81565     -3.79819         0.111374     -0.334804      0.318936
Li	      7.77425      3.76825     -7.49848        -0.268476     -0.128216     -0.857793
Li	      9.56369     -0.08251     -5.65472         1.472867     -0.257171     -0.031404
Li	     11.69261      1.82735     -9.43850         0.429183     -0.133633     -0.828808
Li	      7.77490      5.78738     -1.83984        -0.262729     -0.145200      0.717962
Li	      9.64539      7.61222     -5.57933         0.585223      0.431381     -0.327539
Li	     11.63010      4.05354     -3.75587         1.217375     -0.699553      0.797244
Li	     13.57025      5.70106     -7.50054         0.849386     -0.219903     -0.408391
Mn	      7.77073      3.77455     -3.74143        -0.600387     -0.013180      0.703450
Mn	      9.68462      5.61588     -7.52643         2.765886      2.645631     -4.913996
Mn	     11.65960      1.92741     -5.73044         3.334749     -2.869728      1.820022
Mn	      5.83525      7.58978     -5.59782        -1.376929      5.430224     -4.432200
Mn	      9.67988      7.60053     -1.84429         0.341471      5.072799      2.438566
Mn	      7.80798      1.80270     -9.40629         0.642963     -0.877536     -4.312871
Mn	      1.95624      1.87726     -3.73406        -3.069388     -0.358644     -1.348758
Mn	     15.53474      7.55121     -7.50497         3.703294      0.988605     -4.124712
Mn	      1.96905      1.86389     -0.00343        -6.633034     -1.219838      1.267707
Mn	      3.90768      3.77785     -3.87183        -4.939289      4.707660      3.050953
Mn	      5.87084     -0.06607     -1.90453        -1.520629     -3.143115      1.541231
Mn	      7.80137      1.84022     -5.66480        -0.370981     -2.422551     -1.255604
Mn	      3.84526      5.76394      2.03633        -5.504891      1.223089      1.646327
Mn	      5.78393      7.67876     -1.83216        -3.221761      3.304510      1.293567
Mn	      7.76703      3.79954      0.01165        -0.453296     -0.011893      2.928244
Mn	      9.69816      5.70542     -3.74860         0.921539     -0.234971      0.303581
Mn	      5.79710      7.66477      1.89872        -0.438656      4.459755      4.489868
Mn	      3.93569      1.85017     -5.66051        -1.537625     -4.087664     -4.429246
Mn	      5.88868     -1.96058     -3.80899         0.213443     -5.727948      2.031475
Mn	     11.66318      7.59858     -3.75907         3.218329      4.040106      1.432749
Mn	      3.90937      3.71172      0.07708        -2.879045      4.391543      0.508320
Mn	      5.81999      5.71462     -3.75064        -1.385056      0.250636      1.269645
Mn	      7.79812      1.86513     -1.91219         1.414499     -2.468448      4.549495
Mn	      9.78676      3.78535     -5.63963         1.165954     -0.819161     -0.127873
O	      4.04822     -0.19056     -1.90236        -2.604978     -0.647060     -0.131902
O	      5.85954      1.66978     -5.67659         0.209793     -0.636930     -0.584774
O	      7.99678     -2.07620     -3.82976        -0.338961     -1.028571      0.161179
O	      9.94031     -0.24838     -7.51751         0.743870     -1.766950     -1.497542
O	      5.71612      3.67604     -0.12659         1.793460     -0.057425      1.425979
O	      7.88412      5.55846     -3.71780        -1.220184      2.582936     -0.095505
O	      9.87904      1.70918     -1.96210         0.473281     -1.079588      1.325925
O	     11.81822      3.77113     -5.63273         1.479260      0.597261     -0.196948
O	      5.75389      1.70750     -1.79123        -0.060022      2.482943      0.247998
O	      7.75145      3.71462     -5.50689        -0.786717      0.489051     -3.406291
O	      9.83395     -0.18802     -3.74224         2.070800     -1.449033     -0.107021
O	     11.63794      1.60008     -7.56026         2.269749     -0.754224     -2.112550
O	      7.70880      5.69108      0.13882         1.457883      0.475124      0.846994
O	      9.62637      7.47268     -3.62764        -0.477495      3.356130     -1.824419
O	     11.59409      3.62993     -1.77620         2.688516     -0.912725     -0.378790
O	     13.57674      5.56979     -5.52022         2.335899      0.886836     -1.215564
O	      3.97436      2.00907     -3.87736         0.010546     -2.802136      2.233453
O	      5.89390      3.83150     -7.64493         0.228004      0.059493     -1.795962
O	      7.85993     -0.05215     -5.79153        -1.526054     -1.199938     -0.495335
O	      9.84434      1.92899     -9.53810         0.799715     -0.262145     -1.641958
O	      5.73487      5.82743     -1.91155        -0.645900     -1.341396      1.528932
O	      7.83269      7.80110     -5.60552         0.883006     -0.128624     -1.501630
O	      9.81524      3.93179     -3.86250         0.474831     -2.509722      2.562076
O	     11.72004      5.68758     -7.65935         1.098840      1.501495     -1.097528
O	      3.75055      1.86790     -0.02012         0.271328     -2.486565      0.751880
O	      5.68962      3.92966     -3.69056         1.472521     -2.623070      0.032332
O	      7.68475      0.08113     -1.93458         1.656904     -2.496895      1.050537
O	      9.85292      1.96322     -5.52701        -2.320878     -2.021377     -0.558227
O	      5.62852      5.88703      1.86524         1.704487     -2.141339      0.899615
O	      7.57094      7.71580     -1.82329         2.653708      1.017690      0.784938
O	      9.70844      3.97017      0.02297        -2.525994      0.281628      1.659770
O	     11.52104      5.83004     -3.75124         1.711858     -1.384109      0.883459
O	      2.02660      1.77100     -1.98259        -0.700323     -0.950331      1.543295
O	      3.95181      3.68651     -5.75670        -0.720589      1.613252      0.067784
O	      5.88657     -0.16981     -3.89140        -1.034745      1.184837     -1.730774
O	      7.85665      1.69450     -7.63023        -0.685842     -0.389205      1.762898
O	      5.80726      7.48475     -3.82328        -0.940681      3.305565      1.933361
O	      7.80038      3.66264     -1.96947         0.410397      2.278768      1.967977
O	      9.72266      5.58456     -5.76264        -0.497137      3.142624      2.395739
O	      5.84812      5.81929     -5.52502        -0.123525     -2.744428     -2.855218
O	      7.76860      1.97668     -3.68409        -0.602215     -2.364323     -2.959689
O	      9.74869      3.81633     -7.40340        -0.196105     -1.897356     -3.071875
O	      5.72729      7.77062      0.14722         0.275235      0.811939     -0.963317
O	      7.70300      9.61850     -3.59095         0.564144      1.232291      1.053891
O	      9.68151      5.80927     -1.76197         0.613466     -1.058066      0.645901
O	     11.61456      7.70686     -5.53489         0.468059      0.730979     -1.768707
