# total energy = -605.13476667 eV
 
CRYSTAL
PRIMVEC
4.137131 8.262485 4.094446 
8.399921 -4.194878 -4.103043 
4.194073 4.043462 -8.074313 
PRIMCOORD
94 1
Li	      4.10598      1.65323     -1.97750        -0.253480     -0.026728     -0.083877
Li	      6.15117      3.85808     -5.90666        -0.347271      0.267784     -0.651589
Li	      8.12470     -0.15443     -3.97571         0.495148     -0.347304     -0.025369
Li	     10.24361      1.86652     -7.90893        -0.121690     -0.264062     -0.292056
Li	      6.26060      5.96864      0.00235        -0.378580     -0.076519      0.024152
Li	      8.10918      7.89564     -3.88562        -0.177448      0.669222     -0.073888
Li	     10.17134      3.98707     -1.93263         0.412514     -0.283700      0.049926
Li	     12.19429      5.87243     -5.90829         0.360140      0.283167     -0.120436
Li	      8.10650      7.85346      0.01125        -0.115482      0.126001      0.483653
Li	      6.09635      1.90742     -7.81888        -0.313053      0.327486     -0.284729
Li	      8.12453     -1.97413     -5.90496         0.275420     -0.873701      0.102369
Li	     14.20307      7.89444     -5.90761        -0.151808      0.295492      0.151603
Li	      6.26703      3.97816     -1.96549        -0.492749     -0.053139      0.146874
Li	      8.09843      5.75454     -5.86141        -0.164656      0.649706     -0.199789
Li	      9.96419      1.90162     -3.92857         0.612010     -0.407761      0.442330
Li	     12.20135      4.04682     -7.86449         0.190483     -0.276448     -0.286129
Li	      6.05955      1.89290     -3.95979         0.075842     -0.198754      0.124444
Li	      8.10503      3.92858     -7.81753        -0.118420     -0.105913     -0.453518
Li	      9.97061     -0.08602     -5.89532         0.679247     -0.070565     -0.086545
Li	     12.19012      1.90511     -9.84009         0.272607     -0.068952     -0.531075
Li	      8.10571      6.03362     -1.91812        -0.169881     -0.064988      0.421410
Li	     10.05578      7.93611     -5.81672         0.407629      0.194279     -0.150772
Li	     12.12494      4.22602     -3.91566         0.634398     -0.223924      0.335105
Li	     14.14764      5.94364     -7.81968         0.507615     -0.134342     -0.255136
Mn	      8.10137      3.93515     -3.90062        -0.263638     -0.074685      0.281716
Mn	     10.09670      5.85483     -7.84667         1.439181      1.261514     -2.740587
Mn	     12.15570      2.00942     -5.97427         1.889300     -1.517868      0.700285
Mn	      6.08353      7.91271     -5.83600        -0.778120      3.006367     -2.156302
Mn	     10.09175      7.92392     -1.92276         0.223222      3.073722      1.204558
Mn	      8.14020      1.87940     -9.80651         0.394028     -0.810015     -2.802741
Mn	      2.03948      1.95714     -3.89294        -1.770763     -0.481682     -0.419639
Mn	     16.19572      7.87250     -7.82430         2.473661      1.391978     -3.322599
Mn	      2.05283      1.94319     -0.00358        -4.104189     -0.824757      0.672224
Mn	      4.07394      3.93860     -4.03656        -2.795378      2.553429      1.470427
Mn	      6.12063     -0.06888     -1.98556        -0.802054     -1.432848      0.860435
Mn	      8.13332      1.91852     -5.90583        -0.102351     -1.136728     -0.707712
Mn	      4.00888      6.00919      2.12297        -3.272536      0.971651      1.657748
Mn	      6.03003      8.00549     -1.91012        -1.762985      1.780578      0.783338
Mn	      8.09750      3.96120      0.01214        -0.296447      0.003355      1.513995
Mn	     10.11080      5.94818     -3.90809         0.517163     -0.161605      0.095670
Mn	      6.04377      7.99089      1.97951        -0.302857      2.635280      2.821482
Mn	      4.10315      1.92889     -5.90136        -0.719077     -2.572773     -2.250889
Mn	      6.13924     -2.04399     -3.97106        -0.074456     -3.327267      1.145161
Mn	     12.15943      7.92188     -3.91902         1.703857      2.131730      0.861457
Mn	      4.07571      3.86965      0.08035        -1.753197      1.864475      0.515028
Mn	      6.06761      5.95777     -3.91021        -0.729125      0.234899      0.654203
Mn	      8.12991      1.94448     -1.99355         0.662800     -1.254231      2.422315
Mn	     10.20317      3.94641     -5.87958         0.587168     -0.560324     -0.087227
O	      4.22047     -0.19867     -1.98331        -1.341919     -0.336999      0.074116
O	      6.10885      1.74083     -5.91811        -0.496830     -0.724944     -0.373198
O	      8.33704     -2.16455     -3.99272        -0.032211     -0.620997      0.040822
O	     10.36326     -0.25895     -7.83737         0.732687     -1.023366     -0.894054
O	      5.95934      3.83246     -0.13197         0.663256      0.143634      0.778861
O	      8.21958      5.79497     -3.87599        -0.581268      1.251748     -0.043095
O	     10.29937      1.78190     -2.04558         0.707563     -0.864411      0.658660
O	     12.32107      3.93160     -5.87240         1.014744      0.290152     -0.225067
O	      5.99872      1.78015     -1.86745        -0.181673      1.088183      0.357615
O	      8.08126      3.87266     -5.74120        -0.406514      0.566363     -1.666291
O	     10.25236     -0.19602     -3.90146         1.441821     -0.768957     -0.167593
O	     12.13311      1.66816     -7.88193         1.363554     -0.514188     -1.277259
O	      8.03679      5.93323      0.14472         0.814315      0.493232      0.776362
O	     10.03596      7.79064     -3.78199        -0.178869      1.696656     -0.781583
O	     12.08739      3.78437     -1.85178         1.463283     -0.697046      0.103865
O	     14.15440      5.80678     -5.75509         1.534090      0.685173     -0.901475
O	      4.14346      2.09456     -4.04233        -0.114763     -1.299095      1.024474
O	      6.14468      3.99452     -7.97021        -0.097059     -0.123249     -1.371524
O	      8.19435     -0.05437     -6.03795        -0.858505     -1.069963     -0.400666
O	     10.26320      2.01106     -9.94393         0.565716     -0.159153     -1.361386
O	      5.97889      6.07539     -1.99289        -0.489539     -0.729119      0.817053
O	      8.16596      8.13302     -5.84402         0.570769     -0.104647     -1.080227
O	     10.23287      4.09908     -4.02684         0.202017     -1.223825      1.289685
O	     12.21870      5.92958     -7.98524         0.710068      0.758194     -0.787217
O	      3.91013      1.94738     -0.02097         0.225732     -1.070950      0.554578
O	      5.93171      4.09686     -3.84758         0.618989     -1.228874     -0.028523
O	      8.01173      0.08458     -2.01689         0.633420     -1.315099      0.567249
O	     10.27214      2.04675     -5.76217        -1.113817     -0.983152     -0.043790
O	      5.86800      6.13751      1.94460         0.639526     -0.997994      0.422689
O	      7.89308      8.04409     -1.90086         1.334290      0.567236      0.464257
O	     10.12153      4.13909      0.02394        -0.505554      0.318471      1.439845
O	     12.01124      6.07810     -3.91086         0.765469     -0.615584      0.527185
O	      2.11283      1.84636     -2.06695        -0.388554     -0.737695      0.626702
O	      4.11996      3.84336     -6.00164        -0.972503      0.979652      0.269568
O	      6.13702     -0.17704     -4.05696        -0.567654      0.152263     -0.960346
O	      8.19094      1.76660     -7.95488        -0.486255     -0.308827      0.640604
O	      6.05435      7.80322     -3.98595        -0.483942      1.631231      0.961628
O	      8.13228      3.81848     -2.05327         0.226843      1.089010      0.963754
O	     10.13634      5.82218     -6.00784        -0.319614      1.628680      0.951871
O	      6.09695      6.06689     -5.76010         0.000856     -1.293098     -1.305026
O	      8.09914      2.06078     -3.84084        -0.320231     -1.129464     -1.306294
O	     10.16349      3.97871     -7.71840        -0.059975     -0.913669     -1.499953
O	      5.97098      8.10125      0.15349         0.161953      0.566592     -0.227928
O	      8.03075     10.02776     -3.74373         0.398850      0.467078      0.488988
O	     10.09344      6.05645     -1.83695         0.396054     -0.225842      0.675450
O	     12.10873      8.03479     -5.77039         0.329642      0.616122     -0.732691
