# total energy = -611.98103935 eV
 
CRYSTAL
PRIMVEC
4.179782 8.347665 4.136657 
8.486519 -4.238125 -4.145343 
4.237311 4.085147 -8.157554 
PRIMCOORD
94 1
Li	      4.19107      1.68750     -2.01848        -0.165124     -0.026199     -0.036985
Li	      6.27865      3.93803     -6.02908        -0.194633      0.171020     -0.432538
Li	      8.29308     -0.15762     -4.05810         0.333807     -0.229909     -0.012695
Li	     10.45591      1.90520     -8.07285        -0.081322     -0.164673     -0.174886
Li	      6.39035      6.09234      0.00240        -0.220728     -0.062860      0.008709
Li	      8.27723      8.05927     -3.96615        -0.117603      0.426897     -0.048196
Li	     10.38214      4.06970     -1.97268         0.248173     -0.183847      0.030459
Li	     12.44702      5.99413     -6.03075         0.228624      0.170984     -0.078450
Li	      8.27451      8.01622      0.01148        -0.078581      0.052664      0.294408
Li	      6.22270      1.94695     -7.98093        -0.190517      0.216233     -0.162824
Li	      8.29290     -2.01504     -6.02734         0.176375     -0.553979      0.061613
Li	     14.49743      8.05805     -6.03004        -0.107529      0.196781      0.088594
Li	      6.39692      4.06060     -2.00623        -0.304432     -0.032972      0.118347
Li	      8.26628      5.87381     -5.98289        -0.097747      0.408694     -0.124373
Li	     10.17070      1.94103     -4.00999         0.379800     -0.269425      0.275682
Li	     12.45422      4.13069     -8.02748         0.121136     -0.149708     -0.183289
Li	      6.18514      1.93214     -4.04186         0.066614     -0.132296      0.077437
Li	      8.27301      4.01000     -7.97954        -0.069809     -0.068953     -0.283921
Li	     10.17726     -0.08781     -6.01750         0.416256     -0.026682     -0.062050
Li	     12.44276      1.94459    -10.04403         0.194534     -0.027419     -0.369829
Li	      8.27370      6.15867     -1.95788        -0.121135     -0.044694      0.272730
Li	     10.26420      8.10058     -5.93728         0.275822      0.114593     -0.103456
Li	     12.37623      4.31361     -3.99682         0.407026     -0.110777      0.185478
Li	     14.44084      6.06682     -7.98174         0.329466     -0.080984     -0.190442
Mn	      8.26926      4.01670     -3.98146        -0.149510     -0.069887      0.169791
Mn	     10.30594      5.97617     -8.00929         0.864351      0.795863     -1.800520
Mn	     12.40762      2.05106     -6.09808         1.199344     -0.947311      0.424594
Mn	      6.20962      8.07671     -5.95695        -0.471122      1.954818     -1.323296
Mn	     10.30090      8.08814     -1.96262         0.174501      2.022525      0.742839
Mn	      8.30890      1.91834    -10.00974         0.260729     -0.648355     -2.002473
Mn	      2.08175      1.99770     -3.97362        -1.192993     -0.449723     -0.164034
Mn	     16.53137      8.03566     -7.98645         1.786746      1.205709     -2.315479
Mn	      2.09538      1.98346     -0.00365        -2.737752     -0.552185      0.427710
Mn	      4.15838      4.02022     -4.12023        -1.822250      1.657690      0.969872
Mn	      6.24748     -0.07031     -2.02671        -0.471571     -0.806175      0.565276
Mn	      8.30188      1.95828     -6.02823        -0.043093     -0.682496     -0.409169
Mn	      4.09196      6.13373      2.16697        -2.160040      0.655030      1.116000
Mn	      6.15500      8.17140     -1.94971        -1.172221      1.092932      0.526836
Mn	      8.26533      4.04330      0.01240        -0.236966     -0.002319      0.927086
Mn	     10.32034      6.07145     -3.98908         0.325738     -0.116947      0.027978
Mn	      6.16902      8.15650      2.02054        -0.240538      1.752857      1.987828
Mn	      4.18818      1.96887     -6.02366        -0.477000     -1.745492     -1.384500
Mn	      6.26647     -2.08636     -4.05335        -0.127139     -2.209906      0.755198
Mn	     12.41143      8.08606     -4.00024         1.064942      1.364193      0.577596
Mn	      4.16018      3.94984      0.08202        -1.136964      1.181093      0.348899
Mn	      6.19337      6.08124     -3.99126        -0.452324      0.190345      0.425970
Mn	      8.29841      1.98478     -2.03487         0.395706     -0.746245      1.568202
Mn	     10.41463      4.02821     -6.00143         0.353630     -0.356894     -0.067322
O	      4.30794     -0.20278     -2.02441        -0.844565     -0.302879      0.108548
O	      6.23546      1.77691     -6.04076        -0.430952     -0.556961     -0.269129
O	      8.50983     -2.20941     -4.07546         0.020211     -0.556399      0.045495
O	     10.57804     -0.26432     -7.99980         0.614918     -0.665117     -0.610568
O	      6.08283      3.91188     -0.13470         0.304170      0.079930      0.511407
O	      8.38993      5.91507     -3.95632        -0.337402      0.754205     -0.024301
O	     10.51283      1.81884     -2.08797         0.594159     -0.654448      0.427826
O	     12.57643      4.01308     -5.99410         0.728285      0.139764     -0.159288
O	      6.12304      1.81704     -1.90615        -0.149549      0.585670      0.285456
O	      8.24874      3.95293     -5.86018        -0.247584      0.457933     -0.989367
O	     10.46485     -0.20009     -3.98233         0.977635     -0.540506     -0.107448
O	     12.38456      1.70274     -8.04529         0.904742     -0.399257     -0.839611
O	      8.20336      6.05620      0.14772         0.538292      0.453735      0.748220
O	     10.24395      7.95210     -3.86037        -0.091191      1.054410     -0.434065
O	     12.33791      3.86280     -1.89016         0.937147     -0.494002      0.260841
O	     14.44775      5.92713     -5.87436         1.105167      0.504091     -0.639733
O	      4.22933      2.13797     -4.12611        -0.106738     -0.765453      0.557125
O	      6.27203      4.07731     -8.13539        -0.175288     -0.144613     -1.075376
O	      8.36418     -0.05549     -6.16308        -0.554250     -0.837330     -0.272820
O	     10.47591      2.05274    -10.15002         0.363010     -0.117936     -1.014216
O	      6.10280      6.20129     -2.03418        -0.330944     -0.402720      0.457641
O	      8.33520      8.30158     -5.96514         0.368688     -0.059417     -0.695694
O	     10.44495      4.18403     -4.11030         0.113088     -0.727697      0.774460
O	     12.47194      6.05247     -8.15073         0.465537      0.381999     -0.570921
O	      3.99117      1.98774     -0.02141         0.175654     -0.662946      0.388637
O	      6.05463      4.18177     -3.92733         0.301737     -0.726494     -0.060492
O	      8.17777      0.08633     -2.05870         0.302095     -0.847011      0.367142
O	     10.48503      2.08917     -5.88159        -0.687692     -0.561450     -0.029033
O	      5.98961      6.26471      1.98490         0.338874     -0.552416      0.302320
O	      8.05666      8.21081     -1.94025         0.823624      0.410382      0.311175
O	     10.33130      4.22487      0.02444         0.013459      0.275770      0.981421
O	     12.26017      6.20407     -3.99190         0.435603     -0.346402      0.346372
O	      2.15662      1.88463     -2.10978        -0.254651     -0.573353      0.309594
O	      4.20534      3.92302     -6.12602        -0.749669      0.574939      0.056919
O	      6.26421     -0.18071     -4.14104        -0.351983     -0.012037     -0.615200
O	      8.36069      1.80321     -8.11975        -0.345409     -0.248067      0.166363
O	      6.17983      7.96494     -4.06856        -0.305745      0.990488      0.586205
O	      8.30081      3.89763     -2.09582         0.144290      0.657828      0.549906
O	     10.34641      5.94285     -6.13235        -0.208004      0.995524      0.541567
O	      6.22331      6.19263     -5.87948         0.013675     -0.767076     -0.746155
O	      8.26700      2.10349     -3.92044        -0.206560     -0.669606     -0.715016
O	     10.37412      4.06117     -7.87836        -0.028847     -0.543429     -0.896869
O	      6.09472      8.26914      0.15666         0.119537      0.442829     -0.025890
O	      8.19719     10.23558     -3.82133         0.243767      0.320592      0.337342
O	     10.30262      6.18196     -1.87501         0.257244     -0.027442      0.512714
O	     12.35968      8.20130     -5.88998         0.239739      0.550762     -0.387910
