# total energy = -91.00841669 eV
 
CRYSTAL
PRIMVEC
0.000033 2.073502 2.073531 
8.182723 2.110634 -2.110599 
0.002891 4.215561 -4.215641 
PRIMCOORD
16 1
Li	      2.12373      2.09919     -0.02431         0.000136      0.015379     -0.014495
Li	      3.96077      2.15620     -2.15558        -0.034082      0.005133     -0.004480
Li	      6.04938      4.19348     -2.11854        -0.004730     -0.013658      0.014309
Li	      2.12117      4.19672     -2.12166        -0.021189     -0.013277      0.012729
Mn	      0.06377      4.22845     -4.22683         0.103661      0.011361     -0.011718
Mn	      0.08266      2.09978     -2.09812         0.106742     -0.016468      0.015866
Ni	      4.02385      4.19494     -4.19327        -0.004686     -0.010293      0.011102
Ni	      6.10038      6.31213     -4.23704        -0.035321      0.040757     -0.041971
O	      6.29737      4.27332     -4.27176         0.059489     -0.100093      0.103369
O	      0.02118      4.20262     -2.12774         0.102918     -0.003200      0.003511
O	      6.27164      2.05660     -2.05494         0.033976      0.113004     -0.112874
O	      8.16344      4.20368     -2.12815        -0.013516     -0.004955      0.003711
O	      1.92058      2.10466     -2.10320        -0.071066     -0.009269      0.010034
O	      4.08772      4.32704     -2.25182        -0.011764     -0.103050      0.102377
O	      1.91479      4.22310     -4.22166        -0.118819      0.005675     -0.006312
O	      4.10553      6.14807     -4.07285        -0.091750      0.082953     -0.085157
