# total energy = -614.35764152 eV
 
CRYSTAL
PRIMVEC
4.201107 8.390255 4.157762 
8.529817 -4.259748 -4.166492 
4.258930 4.105989 -8.199174 
PRIMCOORD
94 1
Li	      4.23395      1.70476     -2.03913        -0.122787     -0.021471     -0.019667
Li	      6.34288      3.97832     -6.09075        -0.133171      0.120416     -0.322733
Li	      8.37791     -0.15924     -4.09962         0.253603     -0.171924     -0.012207
Li	     10.56287      1.92469     -8.15543        -0.063096     -0.118804     -0.123474
Li	      6.45572      6.15467      0.00242        -0.157150     -0.051922      0.000660
Li	      8.36191      8.14171     -4.00673        -0.092137      0.314074     -0.038616
Li	     10.48835      4.11133     -1.99287         0.173671     -0.133484      0.023248
Li	     12.57435      6.05545     -6.09244         0.166779      0.122573     -0.059599
Li	      8.35916      8.09822      0.01160        -0.061915      0.031657      0.214815
Li	      6.28635      1.96686     -8.06257        -0.135496      0.160134     -0.114558
Li	      8.37774     -2.03566     -6.08901         0.127777     -0.404832      0.048024
Li	     14.64574      8.14048     -6.09173        -0.082481      0.148605      0.061893
Li	      6.46236      4.10215     -2.02675        -0.219333     -0.025258      0.098975
Li	      8.35084      5.93390     -6.04409        -0.068657      0.299401     -0.090326
Li	     10.27475      1.96089     -4.05102         0.275646     -0.199664      0.200803
Li	     12.58163      4.17295     -8.10960         0.090871     -0.100566     -0.134804
Li	      6.24842      1.95191     -4.08321         0.056597     -0.100943      0.059810
Li	      8.35764      4.05103     -8.06117        -0.050138     -0.054204     -0.205301
Li	     10.28137     -0.08870     -6.07906         0.307760     -0.010757     -0.047049
Li	     12.57004      1.96448    -10.14677         0.152207     -0.015822     -0.286714
Li	      8.35834      6.22167     -1.97790        -0.096386     -0.032922      0.202115
Li	     10.36920      8.18345     -5.99802         0.212655      0.081620     -0.078448
Li	     12.50284      4.35773     -4.03771         0.305205     -0.070961      0.127714
Li	     14.58858      6.12888     -8.06339         0.246272     -0.053576     -0.149130
Mn	      8.35386      4.05780     -4.02219        -0.106505     -0.060035      0.119963
Mn	     10.41138      6.03731     -8.09122         0.613401      0.577459     -1.340397
Mn	     12.53456      2.07205     -6.16047         0.882841     -0.694385      0.308790
Mn	      6.27313      8.15933     -6.01789        -0.336184      1.450774     -0.950248
Mn	     10.40629      8.17089     -1.98269         0.139413      1.513656      0.535029
Mn	      8.39391      1.93797    -10.11215         0.192355     -0.530474     -1.563622
Mn	      2.10305      2.01814     -4.01428        -0.902763     -0.389470     -0.086150
Mn	     16.70049      8.11786     -8.06816         1.388615      1.014269     -1.756775
Mn	      2.11681      2.00376     -0.00369        -2.055130     -0.419297      0.312721
Mn	      4.20092      4.06135     -4.16237        -1.358326      1.230334      0.732645
Mn	      6.31140     -0.07103     -2.04745        -0.335911     -0.555376      0.423098
Mn	      8.38681      1.97831     -6.08990        -0.020997     -0.486724     -0.288206
Mn	      4.13381      6.19648      2.18914        -1.613292      0.489713      0.831579
Mn	      6.21797      8.25500     -1.96965        -0.886508      0.787981      0.396500
Mn	      8.34988      4.08466      0.01252        -0.189792      0.007797      0.669819
Mn	     10.42592      6.13356     -4.02990         0.241012     -0.089154      0.010177
Mn	      6.23213      8.23994      2.04121        -0.196816      1.320192      1.552318
Mn	      4.23103      1.98901     -6.08528        -0.365756     -1.313126     -1.005233
Mn	      6.33058     -2.10770     -4.09482        -0.119195     -1.658169      0.568968
Mn	     12.53840      8.16878     -4.04115         0.772881      1.014651      0.427574
Mn	      4.20273      3.99025      0.08286        -0.847610      0.869946      0.257642
Mn	      6.25673      6.14345     -4.03208        -0.330780      0.151297      0.315098
Mn	      8.38330      2.00509     -2.05568         0.283188     -0.528788      1.161388
Mn	     10.52117      4.06941     -6.06283         0.249786     -0.259423     -0.055557
O	      4.35201     -0.20486     -2.04512        -0.617235     -0.259027      0.102154
O	      6.29925      1.79509     -6.10256        -0.360684     -0.451114     -0.207272
O	      8.59688     -2.23202     -4.11716         0.032050     -0.487076      0.038351
O	     10.68625     -0.26703     -8.08164         0.509802     -0.489703     -0.464080
O	      6.14507      3.95190     -0.13609         0.186833      0.054062      0.385942
O	      8.47576      5.97558     -3.99679        -0.232208      0.536343     -0.017123
O	     10.62037      1.83744     -2.10933         0.488126     -0.522760      0.315006
O	     12.70509      4.05413     -6.05542         0.572450      0.091688     -0.118160
O	      6.18567      1.83562     -1.92565        -0.118459      0.390139      0.227303
O	      8.33313      3.99336     -5.92013        -0.179958      0.373055     -0.696359
O	     10.57190     -0.20213     -4.02306         0.740120     -0.414461     -0.081368
O	     12.51127      1.72016     -8.12759         0.676333     -0.320314     -0.626198
O	      8.28727      6.11815      0.14924         0.404767      0.382903      0.663862
O	     10.34875      8.03345     -3.89986        -0.057491      0.760636     -0.295749
O	     12.46412      3.90231     -1.90950         0.691051     -0.378003      0.256661
O	     14.59555      5.98776     -5.93446         0.869245      0.399855     -0.492270
O	      4.27260      2.15984     -4.16833        -0.089667     -0.540353      0.368957
O	      6.33619      4.11902     -8.21862        -0.175127     -0.129296     -0.885817
O	      8.44974     -0.05606     -6.22613        -0.403303     -0.670661     -0.206573
O	     10.58308      2.07375    -10.25385         0.266725     -0.094983     -0.790517
O	      6.16523      6.26473     -2.05500        -0.250517     -0.275079      0.313914
O	      8.42047      8.38650     -6.02617         0.268442     -0.043164     -0.512844
O	     10.55180      4.22683     -4.15234         0.082732     -0.513159      0.551222
O	     12.59952      6.11439     -8.23411         0.347440      0.232274     -0.450487
O	      4.03200      2.00809     -0.02162         0.135114     -0.485487      0.292094
O	      6.11658      4.22455     -3.96750         0.188303     -0.507132     -0.058034
O	      8.26143      0.08721     -2.07976         0.191481     -0.623759      0.267866
O	     10.59230      2.11054     -5.94176        -0.503289     -0.390977     -0.019474
O	      6.05088      6.32880      2.00522         0.222752     -0.371984      0.235079
O	      8.13908      8.29481     -1.96010         0.597591      0.322011      0.232566
O	     10.43698      4.26810      0.02469         0.121606      0.237526      0.733802
O	     12.38560      6.26754     -4.03275         0.305675     -0.231281      0.260623
O	      2.17868      1.90390     -2.13137        -0.191139     -0.463203      0.191292
O	      4.24837      3.96315     -6.18869        -0.582202      0.399141      0.003574
O	      6.32830     -0.18255     -4.18341        -0.254069     -0.045137     -0.451081
O	      8.44622      1.82166     -8.20281        -0.265671     -0.210875      0.028868
O	      6.24305      8.04642     -4.11018        -0.225147      0.708271      0.417247
O	      8.38573      3.93750     -2.11727         0.109085      0.472342      0.377175
O	     10.45226      6.00363     -6.19508        -0.157192      0.715047      0.376978
O	      6.28697      6.25597     -5.93963         0.016167     -0.541104     -0.516855
O	      8.35157      2.12501     -3.96055        -0.152234     -0.473319     -0.477657
O	     10.48025      4.10271     -7.95896        -0.014260     -0.385414     -0.632317
O	      6.15707      8.35373      0.15827         0.092149      0.357486      0.023891
O	      8.28104     10.34029     -3.86041         0.161458      0.238629      0.259629
O	     10.40803      6.24521     -1.89420         0.182691      0.022353      0.399922
O	     12.48613      8.28521     -5.95023         0.185439      0.470044     -0.256298
