# total energy = -616.05574156 eV
 
CRYSTAL
PRIMVEC
4.222433 8.432846 4.178868 
8.573116 -4.281371 -4.187642 
4.280549 4.126832 -8.240794 
PRIMCOORD
94 1
Li	      4.27704      1.72211     -2.05988        -0.082638     -0.015487     -0.013280
Li	      6.40744      4.01882     -6.15274        -0.081680      0.076313     -0.217241
Li	      8.46319     -0.16086     -4.14135         0.174378     -0.112125     -0.006157
Li	     10.67039      1.94428     -8.23845        -0.044913     -0.076681     -0.081083
Li	      6.52143      6.21731      0.00244        -0.104102     -0.035836     -0.004594
Li	      8.44702      8.22459     -4.04751        -0.061030      0.206237     -0.026127
Li	     10.59510      4.15317     -2.01315         0.107602     -0.083082      0.011386
Li	     12.70233      6.11709     -6.15445         0.109554      0.082326     -0.040082
Li	      8.44424      8.18065      0.01172        -0.041786      0.013120      0.141341
Li	      6.35034      1.98689     -8.14463        -0.085871      0.105328     -0.074294
Li	      8.46301     -2.05637     -6.15098         0.086549     -0.264121      0.025675
Li	     14.79481      8.22334     -6.15373        -0.053627      0.100979      0.041938
Li	      6.52813      4.14390     -2.04738        -0.142003     -0.013206      0.066933
Li	      8.43584      5.99429     -6.10561        -0.043813      0.192504     -0.060657
Li	     10.37933      1.98085     -4.09225         0.174332     -0.134985      0.128285
Li	     12.70968      4.21542     -8.19214         0.061427     -0.063980     -0.089883
Li	      6.31201      1.97177     -4.12477         0.046882     -0.071629      0.042742
Li	      8.44270      4.09226     -8.14322        -0.031865     -0.035976     -0.132553
Li	     10.38601     -0.08961     -6.14093         0.204263     -0.000744     -0.028886
Li	     12.69799      1.98448    -10.25005         0.107316     -0.008718     -0.195347
Li	      8.44341      6.28499     -1.99804        -0.071732     -0.024706      0.133472
Li	     10.47474      8.26674     -6.05907         0.145264      0.048863     -0.053735
Li	     12.63010      4.40209     -4.07881         0.198852     -0.042841      0.076643
Li	     14.73706      6.19126     -8.14546         0.163038     -0.029099     -0.104125
Mn	      8.43889      4.09910     -4.06313        -0.065937     -0.052891      0.081480
Mn	     10.51734      6.09876     -8.17358         0.388601      0.374756     -0.885026
Mn	     12.66214      2.09314     -6.22317         0.582124     -0.462777      0.210072
Mn	      6.33698      8.24238     -6.07914        -0.209297      0.958947     -0.605416
Mn	     10.51219      8.25405     -2.00286         0.098634      1.006238      0.340293
Mn	      8.47934      1.95770    -10.21507         0.125128     -0.388486     -1.089370
Mn	      2.12445      2.03868     -4.05513        -0.609041     -0.294156     -0.034164
Mn	     16.87047      8.20049     -8.15027         0.957277      0.757768     -1.178704
Mn	      2.13836      2.02415     -0.00372        -1.370198     -0.288021      0.202740
Mn	      4.24367      4.10269     -4.20474        -0.900805      0.816104      0.503181
Mn	      6.37563     -0.07175     -2.06829        -0.210292     -0.342424      0.281521
Mn	      8.47217      1.99845     -6.15187        -0.005356     -0.309932     -0.179883
Mn	      4.17589      6.25955      2.21142        -1.071195      0.321177      0.540331
Mn	      6.28126      8.33901     -1.98970        -0.601719      0.504080      0.264423
Mn	      8.43486      4.12623      0.01265        -0.136576      0.012547      0.431660
Mn	     10.53203      6.19599     -4.07091         0.153258     -0.058229     -0.006235
Mn	      6.29557      8.32382      2.06198        -0.144389      0.885616      1.083517
Mn	      4.27409      2.00925     -6.14722        -0.250190     -0.878353     -0.654745
Mn	      6.39501     -2.12915     -4.13650        -0.098302     -1.105753      0.382557
Mn	     12.66602      8.25193     -4.08229         0.499502      0.677738      0.279631
Mn	      4.24552      4.03087      0.08370        -0.563540      0.580363      0.161691
Mn	      6.32041      6.20598     -4.07312        -0.214502      0.107594      0.206670
Mn	      8.46862      2.02549     -2.07660         0.181002     -0.323777      0.765128
Mn	     10.62826      4.11083     -6.12454         0.155748     -0.165894     -0.038789
O	      4.39630     -0.20695     -2.06593        -0.400290     -0.189155      0.076426
O	      6.36336      1.81336     -6.16467        -0.271965     -0.327257     -0.142255
O	      8.68438     -2.25473     -4.15906         0.032427     -0.378329      0.032336
O	     10.79502     -0.26975     -8.16390         0.377360     -0.319731     -0.310363
O	      6.20761      3.99213     -0.13747         0.103435      0.027371      0.257034
O	      8.56202      6.03640     -4.03747        -0.141832      0.334882     -0.011312
O	     10.72847      1.85615     -2.13080         0.356167     -0.368545      0.211344
O	     12.83440      4.09539     -6.11706         0.406526      0.059973     -0.077274
O	      6.24863      1.85431     -1.94525        -0.081229      0.229636      0.163918
O	      8.41794      4.03401     -5.98039        -0.115510      0.273621     -0.437056
O	     10.67951     -0.20418     -4.06401         0.491554     -0.284647     -0.050433
O	     12.63861      1.73766     -8.21032         0.453871     -0.227469     -0.418977
O	      8.37162      6.18043      0.15076         0.270756      0.288903      0.516711
O	     10.45408      8.11521     -3.93956        -0.036943      0.488653     -0.182261
O	     12.59099      3.94204     -1.92893         0.454254     -0.258650      0.210538
O	     14.74411      6.04870     -5.99486         0.606378      0.284356     -0.332173
O	      4.31609      2.18182     -4.21075        -0.062574     -0.338735      0.208202
O	      6.40068      4.16094     -8.30227        -0.144570     -0.103587     -0.646388
O	      8.53576     -0.05663     -6.28951        -0.267750     -0.480476     -0.134610
O	     10.69080      2.09485    -10.35822         0.175786     -0.069547     -0.551285
O	      6.22798      6.32851     -2.07591        -0.168941     -0.163868      0.189648
O	      8.50618      8.47186     -6.08750         0.170478     -0.021600     -0.327290
O	     10.65920      4.26986     -4.19461         0.048657     -0.319805      0.352642
O	     12.72776      6.17662     -8.31792         0.231344      0.112674     -0.314846
O	      4.07304      2.02852     -0.02184         0.088927     -0.322357      0.192485
O	      6.17883      4.26754     -4.00788         0.101065     -0.314729     -0.049276
O	      8.34552      0.08811     -2.10092         0.102354     -0.411021      0.172844
O	     10.70010      2.13202     -6.00223        -0.323684     -0.239345     -0.015198
O	      6.11247      6.39321      2.02562         0.129601     -0.225666      0.167292
O	      8.22192      8.37923     -1.98005         0.384306      0.225644      0.156550
O	     10.54321      4.31153      0.02495         0.153915      0.181918      0.487097
O	     12.51166      6.33133     -4.07379         0.187705     -0.138337      0.172864
O	      2.20086      1.92328     -2.15306        -0.127544     -0.332091      0.095866
O	      4.29161      4.00349     -6.25168        -0.394828      0.245001     -0.023026
O	      6.39272     -0.18441     -4.22599        -0.161560     -0.055772     -0.297758
O	      8.53219      1.84020     -8.28631        -0.181543     -0.158177     -0.048427
O	      6.30659      8.12831     -4.15202        -0.146480      0.455251      0.266410
O	      8.47109      3.97757     -2.13881         0.067632      0.297097      0.217982
O	     10.55864      6.06474     -6.25813        -0.103907      0.457933      0.228718
O	      6.35097      6.31965     -6.00008         0.013662     -0.341153     -0.312890
O	      8.43657      2.14664     -4.00086        -0.104488     -0.295728     -0.276528
O	     10.58692      4.14447     -8.03996        -0.003947     -0.242653     -0.393240
O	      6.21975      8.43876      0.15988         0.063262      0.260230      0.047554
O	      8.36533     10.44555     -3.89970         0.095447      0.161162      0.179170
O	     10.51396      6.30877     -1.91348         0.121082      0.045689      0.279933
O	     12.61321      8.36953     -6.01079         0.127303      0.353748     -0.133636
