# total energy = -617.08287121 eV
 
CRYSTAL
PRIMVEC
4.243758 8.475436 4.199973 
8.616414 -4.302994 -4.208792 
4.302168 4.147674 -8.282414 
PRIMCOORD
94 1
Li	      4.32035      1.73955     -2.08074        -0.043653     -0.007854     -0.003257
Li	      6.47232      4.05951     -6.21505        -0.035717      0.029139     -0.112117
Li	      8.54889     -0.16249     -4.18329         0.097141     -0.057271     -0.003850
Li	     10.77844      1.96397     -8.32187        -0.025773     -0.034738     -0.041357
Li	      6.58747      6.28027      0.00246        -0.060708     -0.023234     -0.006109
Li	      8.53256      8.30787     -4.08849        -0.029923      0.104367     -0.019699
Li	     10.70239      4.19524     -2.03353         0.040337     -0.033711     -0.000307
Li	     12.83096      6.17904     -6.21677         0.054488      0.044762     -0.022467
Li	      8.52975      8.26349      0.01184        -0.022337      0.003495      0.072021
Li	      6.41465      2.00700     -8.22711        -0.040627      0.048341     -0.038371
Li	      8.54872     -2.07720     -6.21327         0.045035     -0.128530      0.012391
Li	     14.94463      8.30661     -6.21605        -0.026170      0.053175      0.023028
Li	      6.59424      4.18586     -2.06811        -0.071300     -0.003597      0.039497
Li	      8.52126      6.05499     -6.16744        -0.022507      0.097983     -0.033140
Li	     10.48444      2.00091     -4.13369         0.085250     -0.070731      0.059685
Li	     12.83839      4.25811     -8.27510         0.029989     -0.028771     -0.040716
Li	      6.37593      1.99174     -4.16653         0.031014     -0.040723      0.026732
Li	      8.52820      4.13370     -8.22568        -0.017978     -0.021697     -0.064115
Li	     10.49118     -0.09052     -6.20312         0.113132      0.005145     -0.009635
Li	     12.82657      2.00457    -10.35385         0.054180     -0.009199     -0.094663
Li	      8.52891      6.34864     -2.01827        -0.042663     -0.009765      0.068148
Li	     10.58081      8.35045     -6.12042         0.077663      0.022463     -0.025532
Li	     12.75800      4.44666     -4.12011         0.102151     -0.015800      0.034605
Li	     14.88630      6.25396     -8.22795         0.083225     -0.007089     -0.050491
Mn	      8.52434      4.14061     -4.10427        -0.034165     -0.044115      0.041700
Mn	     10.62385      6.16052     -8.25635         0.188063      0.181682     -0.436336
Mn	     12.79036      2.11434     -6.28619         0.293672     -0.252088      0.123901
Mn	      6.40115      8.32585     -6.14070        -0.098540      0.473192     -0.289125
Mn	     10.61865      8.33763     -2.02315         0.054572      0.498785      0.162155
Mn	      8.56521      1.97751    -10.31851         0.059300     -0.214025     -0.568656
Mn	      2.14596      2.05931     -4.09619        -0.307658     -0.166658      0.001166
Mn	     17.04130      8.28352     -8.23281         0.492354      0.426992     -0.585610
Mn	      2.16001      2.04465     -0.00376        -0.680572     -0.147513      0.098166
Mn	      4.28665      4.14424     -4.24732        -0.447791      0.416259      0.277424
Mn	      6.44019     -0.07247     -2.08923        -0.099954     -0.160413      0.144263
Mn	      8.55796      2.01869     -6.21417         0.007280     -0.146750     -0.083484
Mn	      4.21818      6.32294      2.23382        -0.532033      0.148498      0.242134
Mn	      6.34486      8.42346     -2.00984        -0.314642      0.236824      0.130674
Mn	      8.52028      4.16801      0.01278        -0.079897      0.011809      0.208275
Mn	     10.63868      6.25873     -4.11214         0.073301     -0.025860     -0.010728
Mn	      6.35932      8.40811      2.08287        -0.078993      0.447255      0.567934
Mn	      4.31737      2.02960     -6.20947        -0.126917     -0.444438     -0.322156
Mn	      6.45977     -2.15071     -4.17838        -0.057999     -0.554843      0.196692
Mn	     12.79428      8.33549     -4.12363         0.243353      0.346822      0.128668
Mn	      4.28850      4.07169      0.08455        -0.286742      0.311223      0.057831
Mn	      6.38441      6.26883     -4.11437        -0.106055      0.056707      0.101831
Mn	      8.55438      2.04600     -2.09764         0.087170     -0.140485      0.379923
Mn	     10.73589      4.15246     -6.18656         0.068306     -0.081555     -0.024511
O	      4.44082     -0.20904     -2.08686        -0.194207     -0.099811      0.045894
O	      6.42780      1.83172     -6.22710        -0.164912     -0.178655     -0.066488
O	      8.77232     -2.27757     -4.20118         0.019074     -0.213695      0.015224
O	     10.90433     -0.27248     -8.24656         0.209411     -0.159287     -0.161994
O	      6.27047      4.03256     -0.13886         0.051809      0.002913      0.131338
O	      8.64873      6.09753     -4.07836        -0.065062      0.158047     -0.013037
O	     10.83711      1.87495     -2.15238         0.193008     -0.192595      0.109503
O	     12.96437      4.13686     -6.17900         0.218480      0.049026     -0.040021
O	      6.31191      1.87309     -1.96495        -0.042353      0.099320      0.087992
O	      8.50319      4.07486     -6.04095        -0.059561      0.165140     -0.198949
O	     10.78765     -0.20626     -4.10517         0.238560     -0.143271     -0.020227
O	     12.76659      1.75526     -8.29345         0.228879     -0.128499     -0.226031
O	      8.45640      6.24301      0.15228         0.138734      0.173899      0.297937
O	     10.55995      8.19738     -3.97945        -0.018534      0.240831     -0.081956
O	     12.71848      3.98196     -1.94846         0.220522     -0.130882      0.131929
O	     14.89341      6.10996     -6.05557         0.315019      0.152816     -0.170095
O	      4.35980      2.20392     -4.25339        -0.025814     -0.161750      0.088211
O	      6.46550      4.20307     -8.38635        -0.087206     -0.063232     -0.356157
O	      8.62219     -0.05721     -6.35320        -0.136396     -0.273826     -0.070786
O	     10.79905      2.11606    -10.46311         0.088690     -0.043211     -0.285970
O	      6.29106      6.39259     -2.09693        -0.077857     -0.075437      0.083855
O	      8.59232      8.55765     -6.14915         0.081265     -0.002951     -0.139243
O	     10.76714      4.31310     -4.23709         0.023407     -0.147030      0.168564
O	     12.85665      6.23917     -8.40215         0.116218      0.015180     -0.171059
O	      4.11428      2.04906     -0.02206         0.038499     -0.176713      0.094118
O	      6.24140      4.31076     -4.04847         0.037469     -0.142507     -0.033587
O	      8.43003      0.08899     -2.12220         0.039550     -0.201925      0.086446
O	     10.80846      2.15361     -6.06302        -0.169724     -0.105259     -0.012425
O	      6.17437      6.45796      2.04613         0.057071     -0.096229      0.091031
O	      8.30519      8.46408     -2.00011         0.190772      0.117946      0.081093
O	     10.64998      4.35520      0.02520         0.127314      0.108626      0.237779
O	     12.63835      6.39545     -4.11504         0.086117     -0.064366      0.082542
O	      2.22314      1.94276     -2.17487        -0.063454     -0.179997      0.027362
O	      4.33507      4.04403     -6.31499        -0.200973      0.119333     -0.029160
O	      6.45745     -0.18628     -4.26878        -0.074999     -0.040144     -0.156572
O	      8.61859      1.85884     -8.37021        -0.092333     -0.095294     -0.068812
O	      6.37046      8.21062     -4.19406        -0.075378      0.222129      0.123174
O	      8.55687      4.01785     -2.16048         0.039348      0.138404      0.070225
O	     10.66557      6.12616     -6.32151        -0.052836      0.218325      0.094936
O	      6.41528      6.38364     -6.06084         0.009080     -0.159779     -0.137241
O	      8.52200      2.16838     -4.04138        -0.053509     -0.135989     -0.097407
O	     10.69413      4.18644     -8.12138         0.002376     -0.112299     -0.178929
O	      6.28273      8.52422      0.16150         0.030514      0.143725      0.044051
O	      8.45004     10.55132     -3.93919         0.041495      0.068992      0.095400
O	     10.62043      6.37266     -1.93286         0.056991      0.036790      0.153263
O	     12.74094      8.45429     -6.07166         0.065774      0.199730     -0.038130
