# total energy = -614.52046166 eV
 
CRYSTAL
PRIMVEC
4.329060 8.645796 4.284395 
8.789608 -4.389486 -4.293391 
4.388643 4.231045 -8.448895 
PRIMCOORD
94 1
Li	      4.49578      1.81019     -2.16523         0.115772      0.044097      0.001810
Li	      6.73513      4.22434     -6.46741         0.099525     -0.141525      0.301518
Li	      8.89602     -0.16909     -4.35315        -0.205291      0.163352     -0.005846
Li	     11.21610      2.04371     -8.65978         0.049504      0.106672      0.099671
Li	      6.85495      6.53529      0.00258         0.020471      0.035498     -0.017787
Li	      8.87903      8.64521     -4.25451         0.094141     -0.258465      0.010360
Li	     11.13697      4.36558     -2.11611        -0.171777      0.147926     -0.083855
Li	     13.35196      6.42993     -6.46920        -0.142193     -0.070374      0.040573
Li	      4.54704     -0.04676     -4.27208         0.047480      0.015911     -0.162439
Li	      6.67511      2.08850     -8.56117         0.099325     -0.164097      0.100889
Li	      8.89583     -2.16154     -6.46556        -0.110228      0.349078     -0.048334
Li	     11.22239     -0.00189    -10.75284         0.038504     -0.137654      0.006650
Li	      6.86200      4.35583     -2.15209         0.168520      0.046649     -0.087399
Li	      8.86726      6.30086     -6.41787         0.042131     -0.228543      0.072784
Li	     10.91015      2.08216     -4.30153        -0.203487      0.167139     -0.202676
Li	     13.35970      4.43101     -8.61111        -0.092561      0.024172      0.152223
Li	      6.63482      2.07262     -4.33572        -0.034966      0.074928     -0.002039
Li	      8.87449      4.30155     -8.55969         0.042868      0.026644      0.205475
Li	     10.91718     -0.09419     -6.45500        -0.183720     -0.004850      0.080781
Li	     13.34740      2.08597    -10.77427        -0.209713     -0.019083      0.387028
Li	      8.87524      6.60643     -2.10022         0.064495      0.039768     -0.183101
Li	     11.01044      8.68953     -6.36894        -0.199056     -0.070306      0.095433
Li	     13.27603      4.62722     -4.28741        -0.303458     -0.008760     -0.074308
Li	     15.49076      6.50790     -8.56204        -0.278388      0.069732      0.234315
Mn	      8.87048      4.30874     -4.27093         0.069240      0.002667     -0.082544
Mn	      6.66659      2.17962     -0.14271        -0.389505     -0.440159      1.316933
Mn	      4.52010      6.58968     -2.24805        -0.796592      0.384889     -0.104370
Mn	      2.27243      4.43287      2.05886         0.213407     -1.440112      0.713349
Mn	      6.72076      0.03038     -6.38970        -0.131158     -1.594879     -0.433596
Mn	      4.52435     -2.17323     -2.28860        -0.134962      0.807083      2.350770
Mn	      2.23310      2.14293     -4.26252         0.970187      0.696743      0.049549
Mn	      0.22596      0.13253     -0.10921        -1.773702     -1.834374      1.876331
Mn	      2.24772      2.12768     -0.00391         2.208435      0.562229     -0.224690
Mn	      4.46071      4.31252     -4.41978         1.396897     -0.978915     -0.514477
Mn	      6.70170     -0.07542     -2.17406         0.264821      0.326271     -0.376533
Mn	      8.90546      2.10066     -6.46650         0.061146      0.380111      0.234457
Mn	      4.38946      6.57967      2.32452         1.582191     -0.558133     -0.986286
Mn	      6.60250      8.76549     -2.09146         0.942552     -0.664098     -0.406821
Mn	      8.86625      4.33726      0.01329         0.135344     -0.152082     -0.623006
Mn	     11.07067      6.51287     -4.27911        -0.215073      0.101163      0.012193
Mn	      2.28847      0.10372     -2.11696         0.331661     -1.398367     -2.402514
Mn	      4.49268      2.11201     -6.46161         0.563910      1.269766      0.750413
Mn	      6.72207     -2.23804     -4.34805         0.197687      1.704909     -0.635489
Mn	      8.98473      0.02815     -8.57547        -0.611448     -1.015188     -0.412459
Mn	      4.46264      4.23702      0.08798         0.797925     -0.570653     -0.391831
Mn	      6.64365      6.52338     -4.28143         0.290673     -0.183100     -0.275548
Mn	      8.90173      2.12908     -2.18281        -0.210299      0.472862     -1.150996
Mn	     11.17181      4.32107     -6.43776        -0.212615      0.188575      0.060914
O	      4.62114     -0.21753     -2.17159         0.458179      0.375433     -0.145412
O	      6.68881      1.90610     -6.47995         0.300004      0.705709      0.235100
O	      9.12852     -2.37005     -4.37178        -0.231346      1.250940     -0.079672
O	     11.34710     -0.28354     -8.58141        -0.852675      0.434144      0.418182
O	      6.52509      4.19630     -0.14450         0.025592     -0.066394     -0.353958
O	      8.99991      6.34512     -4.24396         0.111493     -0.410001     -0.005969
O	     11.27716      1.95107     -2.23978        -0.656495      0.711720     -0.269102
O	     13.49078      4.30484     -6.42990        -0.704065      0.150667      0.135061
O	      6.56820      1.94915     -2.04473         0.089120     -0.159843     -0.409618
O	      8.84846      4.24032     -6.28624         0.093093     -0.286175      0.509393
O	     11.22568     -0.21463     -4.27186        -0.839598      0.452362      0.070611
O	     13.28497      1.82654     -8.63021        -0.630785      0.318981      0.456676
O	      8.79977      6.49651      0.15846        -0.355921     -0.320737     -1.556393
O	     10.98873      8.53024     -4.14104        -0.000592     -0.565808      0.169897
O	     13.23492      4.14364     -2.02758        -0.724344      0.403287     -0.572676
O	     15.49816      6.35805     -6.30146        -1.135447     -0.404733      0.392271
O	      4.53682      2.29340     -4.42610         0.178208      0.366827     -0.084410
O	      6.72803      4.37375     -8.72687         0.487420      0.135567      1.722325
O	      8.97230     -0.05953     -6.61117         0.287340      0.672205      0.166041
O	     11.23755      2.20199    -10.88797        -0.158850      0.089602      0.968925
O	      6.54650      6.65216     -2.18208         0.400656      0.146782     -0.156071
O	      8.94121      8.90514     -6.39884        -0.233201      0.124222      0.568801
O	     11.20434      4.48823     -4.40913        -0.039407      0.340584     -0.348614
O	     13.37870      6.49251     -8.74332        -0.273105     -0.176781      0.624866
O	      4.28134      2.13227     -0.02296        -0.217081      0.218296     -0.300857
O	      6.49484      4.48579     -4.21286        -0.061352      0.323754      0.063358
O	      8.77233      0.09261     -2.20837        -0.012420      0.558246     -0.244077
O	     11.24734      2.24105     -6.30921         0.311415      0.263830     -0.003588
O	      6.42508      6.72018      2.12922        -0.110592      0.195554     -0.289629
O	      8.64242      8.80777     -2.08132        -0.430345     -0.494198     -0.223012
O	     11.08243      4.53204      0.02622        -0.313314     -0.509014     -0.704207
O	     13.15153      6.65513     -4.28213        -0.186119      0.068256     -0.249891
O	      2.31341      2.02164     -2.26317         0.172958      0.669533     -0.012734
O	      4.51110      4.20824     -6.57141         0.626169     -0.215400      0.084719
O	      6.71966     -0.19385     -4.44212         0.163412      0.240359      0.306349
O	      8.96855      1.93431     -8.71009         0.258062      0.390928      0.197143
O	      6.62912      8.54402     -4.36435         0.209543     -0.509063     -0.333112
O	      8.90432      4.18100     -2.24820        -0.079200     -0.332270     -0.362590
O	     11.09864      6.37491     -6.57819         0.144134     -0.533222     -0.294353
O	      6.67577      6.64286     -6.30695        -0.048025      0.334605      0.285943
O	      8.86804      2.25642     -4.20548         0.112513      0.329340      0.386632
O	     11.12837      4.35643     -8.45115        -0.013571      0.264920      0.494941
O	      6.53784      8.87034      0.16805        -0.097659     -0.523605     -0.155992
O	      8.79316     10.97975     -4.09915        -0.019576     -0.312787     -0.218747
O	     11.05167      6.63142     -2.01134        -0.127364     -0.209937     -0.350519
O	     13.25828      8.79757     -6.31820        -0.175483     -0.781805      0.202493
