# total energy = -609.15199003 eV
 
CRYSTAL
PRIMVEC
4.371711 8.730976 4.326605 
8.876206 -4.432732 -4.335690 
4.431881 4.272730 -8.532135 
PRIMCOORD
94 1
Li	      4.58480      1.84602     -2.20811         0.187340      0.087008      0.000096
Li	      6.86850      4.30799     -6.59549         0.155350     -0.197139      0.502077
Li	      9.07218     -0.17244     -4.43935        -0.333811      0.275831     -0.011127
Li	     11.43819      2.08418     -8.83125         0.094547      0.170264      0.160947
Li	      6.99069      6.66469      0.00263         0.011156      0.059228     -0.022511
Li	      9.05485      8.81640     -4.33875         0.148740     -0.427156      0.001683
Li	     11.35750      4.45203     -2.15801        -0.263729      0.224788     -0.154442
Li	     13.61636      6.55725     -6.59731        -0.245695     -0.109680      0.062861
Li	      4.68015      0.03833     -4.31404         0.077130      0.034608     -0.240143
Li	      6.80729      2.12986     -8.73070         0.155898     -0.261713      0.193179
Li	      9.07198     -2.20434     -6.59359        -0.185005      0.551401     -0.077972
Li	     11.48769      0.08409    -10.92314         0.004878     -0.225701      0.050723
Li	      6.99788      4.44209     -2.19470         0.255892      0.078786     -0.154349
Li	      9.04285      6.42562     -6.54495         0.058561     -0.363425      0.134919
Li	     11.12619      2.12338     -4.38671        -0.309293      0.275979     -0.327737
Li	     13.62424      4.51875     -8.78163        -0.165869      0.022299      0.251488
Li	      6.76620      2.11365     -4.42157        -0.058462      0.135706      0.022422
Li	      9.05022      4.38673     -8.72918         0.080815      0.047796      0.342980
Li	     11.13335     -0.09605     -6.58282        -0.299925     -0.022822      0.139635
Li	     13.61169      2.12727    -10.98761        -0.390578     -0.013431      0.699970
Li	      9.05098      6.73724     -2.14181         0.110448      0.041453     -0.306253
Li	     11.22846      8.86159     -6.49505        -0.340697     -0.115795      0.164331
Li	     13.53892      4.71884     -4.37231        -0.533059     -0.059359     -0.100451
Li	     15.79750      6.63677     -8.73159        -0.506736      0.085697      0.428148
Mn	      9.04613      4.39406     -4.35550         0.113583      0.041460     -0.120128
Mn	      6.84225      2.26487     -0.22959        -0.563384     -0.652599      2.168390
Mn	      4.69706      6.67648     -2.33528        -1.333448      0.576926     -0.168819
Mn	      2.36109      4.56275      2.01556         0.252365     -2.435938      1.057281
Mn	      6.89691      0.11700     -6.47360        -0.165183     -2.798679     -0.648919
Mn	      4.65761     -2.17416     -2.41798        -0.166659      1.508642      4.655423
Mn	      2.27732      2.18537     -4.34693         1.620493      1.334753      0.106852
Mn	      0.40462      0.21960     -0.19552        -3.173103     -3.725836      3.064357
Mn	      2.29223      2.16981     -0.00399         3.786841      1.092252     -0.262554
Mn	      4.54904      4.39791     -4.50730         2.386245     -1.485184     -0.797216
Mn	      6.83441     -0.07691     -2.21712         0.426917      0.475463     -0.601575
Mn	      9.08180      2.14225     -6.59455         0.124588      0.599661      0.376291
Mn	      4.47638      6.70997      2.37055         2.604204     -0.891892     -1.612642
Mn	      6.73324      8.93906     -2.13288         1.624001     -1.085073     -0.676792
Mn	      9.04181      4.42315      0.01356         0.205547     -0.351860     -1.036244
Mn	     11.28989      6.64183     -4.36384        -0.353450      0.137346      0.033681
Mn	      2.37686      0.19179     -2.11625         0.660575     -2.363151     -4.846868
Mn	      4.58165      2.15383     -6.58956         1.034470      2.024938      1.133728
Mn	      6.85518     -2.28236     -4.43414         0.332810      2.872742     -1.122335
Mn	      9.20571      0.11473     -8.70264        -0.924962     -1.760362     -0.645119
Mn	      4.55100      4.32091      0.08972         1.329510     -0.903219     -0.610315
Mn	      6.77521      6.65254     -4.36621         0.502079     -0.313980     -0.433744
Mn	      9.07800      2.17124     -2.22603        -0.337530      0.705222     -1.927191
Mn	     11.39303      4.40664     -6.56524        -0.317627      0.273136      0.122596
O	      4.71264     -0.22183     -2.21459         0.663181      0.643740     -0.259070
O	      6.82125      1.94384     -6.60826         0.372650      1.395780      0.368737
O	      9.30928     -2.41697     -4.45834        -0.621689      2.727377     -0.120794
O	     11.57179     -0.28915     -8.75134        -1.623619      0.704626      0.660885
O	      6.65430      4.27939     -0.14736         0.070355     -0.089958     -0.582374
O	      9.17812      6.47076     -4.32799         0.103077     -0.619584      0.001300
O	     11.50046      1.98970     -2.28413        -1.135383      1.323418     -0.438758
O	     13.75793      4.39009     -6.55722        -1.288884      0.283303      0.213703
O	      6.69827      1.98774     -2.08523         0.112993     -0.163407     -0.780086
O	      9.02367      4.32429     -6.41072         0.124772     -0.528600      0.742007
O	      2.57176      4.21385     -0.02075        -1.382885      0.793693      0.069582
O	     13.54804      1.86270     -8.80110        -1.058173      0.525598      0.733246
O	      8.97402      6.62515      0.16160        -0.604307     -0.479315     -3.422989
O	     11.20633      8.69915     -4.22304        -0.006348     -0.808550      0.251661
O	     13.49700      4.22570     -2.06773        -1.220083      0.657724     -1.113806
O	     15.80505      6.48394     -6.42624        -1.885144     -0.658781      0.491968
O	      4.62666      2.33882     -4.51374         0.302494      0.518912     -0.010119
O	      2.42938      0.18762     -0.36755         1.074962      0.152789      3.672744
O	      9.14996     -0.06071     -6.74209         0.421899      1.190287      0.267397
O	      7.02819     -2.02714     -2.57143        -0.210798      0.146175      1.665491
O	      6.67613      6.78388     -2.22529         0.727718      0.217198     -0.111306
O	      9.11826      9.08147     -6.52554        -0.332761      0.221277      0.872721
O	     11.42621      4.57710     -4.49644        -0.051137      0.466898     -0.507418
O	     13.64362      6.62107     -8.91645        -0.416302     -0.193505      1.174459
O	      4.36612      2.17448     -0.02341        -0.319543      0.316356     -0.488896
O	      6.62344      4.57462     -4.29627        -0.047007      0.388483      0.123908
O	      8.94604      0.09445     -2.25210         0.044399      0.885576     -0.405547
O	     11.47006      2.28544     -6.43414         0.467666      0.354082     -0.009743
O	      6.55231      6.85325      2.17137        -0.134906      0.237737     -0.552524
O	      8.81355      8.98217     -2.12253        -0.618998     -0.791542     -0.362554
O	     11.30187      4.62178      0.02674        -0.590752     -1.042673     -1.140730
O	     13.41195      6.78691     -4.36692        -0.241088      0.046420     -0.421085
O	      2.35922      2.06167     -2.30799         0.288670      1.253007      0.144286
O	      4.60042      4.29157     -6.70153         1.062633     -0.377799      0.220573
O	      6.85271     -0.19769     -4.53008         0.218190      0.494175      0.454248
O	      9.14614      1.97261     -8.88256         0.407209      0.784528      0.477333
O	      6.76039      8.71320     -4.45078         0.368087     -0.725312     -0.482682
O	      9.08064      4.26379     -2.29272        -0.132334     -0.485161     -0.505684
O	     11.31841      6.50114     -6.70845         0.242014     -0.796938     -0.434865
O	      6.80795      6.77439     -6.43183        -0.112846      0.459770      0.294315
O	      9.04364      2.30110     -4.28875         0.171244      0.467354      0.518118
O	     11.34872      4.44269     -8.61850        -0.039296      0.375800      0.733635
O	      6.66729      9.04599      0.17138        -0.148361     -1.000315     -0.339850
O	      8.96727     11.19717     -4.18032         0.051728     -0.536420     -0.309174
O	     11.27051      6.76273     -2.05117        -0.185524     -0.410697     -0.577253
O	     13.52082      8.97177     -6.44331        -0.264552     -1.492917      0.256374
