# total energy = -605.40960550 eV
 
CRYSTAL
PRIMVEC
4.393036 8.773567 4.347711 
8.919504 -4.454355 -4.356840 
4.453500 4.293573 -8.573756 
PRIMCOORD
94 1
Li	      4.62964      1.86408     -2.22971         0.225178      0.107951      0.008402
Li	      6.93567      4.35012     -6.65999         0.188222     -0.197346      0.606775
Li	      9.16090     -0.17412     -4.48276        -0.387242      0.330221     -0.008699
Li	     11.55006      2.10457     -8.91763         0.120421      0.205073      0.189377
Li	      7.05906      6.72988      0.00265        -0.002983      0.068897     -0.033619
Li	      9.14339      8.90262     -4.38118         0.170410     -0.520126     -0.015980
Li	     11.46857      4.49557     -2.17911        -0.310209      0.257605     -0.198556
Li	     13.74952      6.62139     -6.66182        -0.320359     -0.123508      0.065611
Li	      4.74735      0.08150     -4.33503         0.090890      0.039452     -0.259402
Li	      6.87386      2.15068     -8.81608         0.194371     -0.312994      0.241187
Li	      9.16070     -2.22591     -6.65807        -0.219744      0.641172     -0.092046
Li	     11.62146      0.12771    -11.00876        -0.044800     -0.244507      0.086116
Li	      7.06632      4.48553     -2.21617         0.294164      0.091969     -0.188951
Li	      9.13129      6.48847     -6.60896         0.058114     -0.424589      0.171126
Li	     11.23501      2.14415     -4.42962        -0.350921      0.324305     -0.387539
Li	     13.75748      4.56294     -8.86751        -0.206039      0.012769      0.297100
Li	      6.83238      2.13433     -4.46481        -0.062302      0.173587      0.063946
Li	      9.13873      4.42963     -8.81456         0.102690      0.063719      0.411382
Li	     11.24224     -0.09700     -6.64720        -0.343476     -0.033553      0.178375
Li	     13.74481      2.14808    -11.09507        -0.487187      0.007437      0.879876
Li	      9.13950      6.80314     -2.16276         0.128876      0.025285     -0.369538
Li	     11.33828      8.94826     -6.55858        -0.407806     -0.143251      0.198324
Li	     13.67133      4.76499     -4.41507        -0.662171     -0.094131     -0.111042
Li	     15.95200      6.70168     -8.81698        -0.649796      0.079798      0.532511
Mn	      9.13460      4.43703     -4.39810         0.134725      0.069537     -0.127358
Mn	      6.93090      2.30797     -0.27366        -0.627925     -0.739035      2.587366
Mn	      4.78651      6.72005     -2.37937        -1.598186      0.634398     -0.188436
Mn	      2.40591      4.62831      1.99345         0.223337     -2.982216      1.196777
Mn	      6.98579      0.16095     -6.51570        -0.136411     -3.507310     -0.731525
Mn	      4.72487     -2.17449     -2.48345        -0.156622      1.900194      6.139220
Mn	      2.29959      2.20675     -4.38944         1.926425      1.698036      0.183568
Mn	      0.49524      0.26376     -0.23930        -3.908182     -4.883253      3.601768
Mn	      2.31464      2.19103     -0.00403         4.617216      1.432463     -0.205273
Mn	      4.59352      4.44092     -4.55138         2.923308     -1.645430     -0.890220
Mn	      6.90125     -0.07766     -2.23880         0.506542      0.539883     -0.679709
Mn	      9.17062      2.16321     -6.65905         0.194858      0.707820      0.450400
Mn	      4.52016      6.77559      2.39373         3.097084     -1.048316     -1.918721
Mn	      6.79909      9.02649     -2.15373         1.951092     -1.353733     -0.812775
Mn	      9.13025      4.46641      0.01369         0.224204     -0.482552     -1.251154
Mn	     11.40030      6.70680     -4.40652        -0.428279      0.133323      0.037847
Mn	      2.42153      0.23647     -2.11574         0.869801     -2.834232     -6.456850
Mn	      4.62645      2.17490     -6.65400         1.222971      2.311127      1.307283
Mn	      6.92222     -2.30468     -4.47751         0.387184      3.459142     -1.369309
Mn	      9.31717      0.15865     -8.76655        -1.051796     -2.156750     -0.749299
Mn	      4.59551      4.36317      0.09060         1.580175     -1.060168     -0.707126
Mn	      6.84147      6.71761     -4.40892         0.633773     -0.396145     -0.506097
Mn	      9.16678      2.19248     -2.24781        -0.411311      0.791565     -2.322354
Mn	     11.50445      4.44972     -6.62945        -0.364642      0.296359      0.159506
O	      4.75874     -0.22400     -2.23626         0.711748      0.766964     -0.323438
O	      6.88797      1.96286     -6.67289         0.229923      1.847861      0.415973
O	      9.40033     -2.44061     -4.50194        -0.952918      3.702155     -0.124000
O	     11.68497     -0.29198     -8.83693        -2.067931      0.825049      0.758833
O	      6.71937      4.32123     -0.14880         0.099392     -0.087198     -0.684988
O	      9.26789      6.53405     -4.37032         0.068087     -0.709274      0.010925
O	     11.61294      2.00917     -2.30647        -1.354312      1.683448     -0.511763
O	     13.89247      4.43303     -6.62134        -1.597183      0.376578      0.250455
O	      6.76377      2.00718     -2.10562         0.104967     -0.119485     -1.004604
O	      9.11192      4.36658     -6.47341         0.118490     -0.666799      0.820356
O	      2.64042      4.23334     -0.04221        -1.615110      1.009452      0.036364
O	     13.68054      1.88092     -8.88718        -1.274073      0.609762      0.846488
O	      9.06178      6.68994      0.16319        -0.731876     -0.499254     -4.723809
O	     11.31592      8.78424     -4.26434        -0.020382     -0.855929      0.303523
O	     13.62899      4.26702     -2.08795        -1.478833      0.759909     -1.418499
O	     15.95962      6.54736     -6.48908        -2.053572     -0.736838      0.412928
O	      4.67191      2.36169     -4.55789         0.355697      0.561557      0.020482
O	      2.47486      0.21040     -0.41296         1.465673      0.075336      5.000095
O	      9.23945     -0.06130     -6.80802         0.457168      1.462104      0.322374
O	      7.11864     -2.02602     -2.63840        -0.220334      0.145172      1.990582
O	      6.74142      6.85023     -2.24705         0.908371      0.268934      0.016193
O	      9.20744      9.17028     -6.58936        -0.352287      0.292433      0.998319
O	     11.53794      4.62187     -4.54041        -0.055062      0.482504     -0.561191
O	      9.32355      2.39225     -0.42990        -0.467148     -0.180012      1.491156
O	      4.40882      2.19575     -0.02365        -0.347702      0.343922     -0.585705
O	      6.68822      4.61936     -4.33830        -0.043897      0.331906      0.154309
O	      9.03352      0.09536     -2.27412         0.101252      1.050242     -0.488049
O	     11.58223      2.30779     -6.49706         0.517574      0.384094     -0.021110
O	      6.61639      6.92028      2.19261        -0.149995      0.228232     -0.702673
O	      8.89975      9.07002     -2.14330        -0.676390     -0.853359     -0.418269
O	     11.41240      4.66698      0.02700        -0.709652     -1.393412     -1.344043
O	     13.54312      6.85329     -4.40963        -0.219488      0.020373     -0.509370
O	      2.38229      2.08184     -2.33056         0.338741      1.581068      0.276125
O	      4.64541      4.33354     -6.76707         1.297182     -0.505600      0.304861
O	      6.91972     -0.19962     -4.57438         0.224617      0.657502      0.483864
O	      9.23559      1.99191     -8.96943         0.458995      1.020201      0.646367
O	      6.82651      8.79842     -4.49431         0.460058     -0.744283     -0.533082
O	      9.16945      4.30549     -2.31514        -0.153988     -0.544024     -0.555294
O	     11.42910      6.56473     -6.77406         0.293917     -0.893325     -0.494769
O	      6.87454      6.84064     -6.49473        -0.164645      0.501809      0.188507
O	      9.13209      2.32361     -4.33070         0.187416      0.517468      0.548345
O	     11.45970      4.48614     -8.70278        -0.063101      0.421768      0.830366
O	      6.73250      9.13446      0.17306        -0.166933     -1.274522     -0.442370
O	      9.05497     11.30668     -4.22120         0.110640     -0.667084     -0.295496
O	     11.38073      6.82887     -2.07122        -0.210434     -0.503672     -0.672930
O	     13.65305      9.05952     -6.50633        -0.290308     -1.913681      0.275398
