# total energy = -91.42751759 eV
 
CRYSTAL
PRIMVEC
0.000527 2.064149 2.066931 
8.431323 -4.212804 4.219679 
2.096228 2.116963 -4.185762 
PRIMCOORD
16 1
Li	      2.18370      2.06662     -0.00726         0.011140     -0.006648      0.005710
Li	      4.42606     -0.09234      0.09178        -0.019382     -0.017814      0.017380
Li	      6.32407      2.04458      0.01965         0.000309      0.040523     -0.037877
Li	      6.15406     -0.03645      2.09874        -0.041076     -0.031663      0.034887
Mn	      0.00787      0.00963     -0.00989         0.026509      0.016538     -0.024435
Mn	      2.18931     -0.02735      2.09357         0.146874     -0.008136      0.008375
Ni	      8.25973      0.04203     -0.04160        -0.000465     -0.097820      0.093226
Ni	      8.35137     -2.10302      2.10665         0.070191     -0.022130      0.013335
O	      2.15217      2.17820     -2.17659         0.083398     -0.029053      0.039684
O	      6.32086     -0.04463      0.04362        -0.114861      0.021959     -0.020266
O	      6.38402     -2.16175      2.16594        -0.110318      0.117909     -0.115615
O	      8.62138     -0.06383      2.13357         0.073790      0.068373     -0.070177
O	      8.47387     -2.16899      4.23507         0.062740     -0.077289      0.071645
O	      1.97111     -0.08015      0.08114        -0.009959     -0.006543      0.006904
O	      4.16873      2.24757     -0.18576        -0.019001      0.036611     -0.035258
O	      3.97907      0.03926      2.02486        -0.159888     -0.004816      0.012483
