# total energy = -91.59258239 eV
 
CRYSTAL
PRIMVEC
0.000017 2.048454 2.048430 
4.100120 -4.234733 4.234918 
4.086740 4.227807 -4.227893 
PRIMCOORD
16 1
Li	      2.07658      2.10725     -0.05857         0.015777     -0.005174      0.005037
Li	      4.23055      2.09145     -2.08789         0.008724     -0.017325      0.016099
Li	      2.01715     -0.09285      2.14159        -0.015808      0.002956     -0.002590
Li	      6.10585      2.13564     -0.08673        -0.017893      0.011720     -0.011696
Mn	      0.07699      2.05736      2.03929         0.061648      0.007056     -0.006232
Mn	      4.01092      2.06504      2.03187        -0.045031      0.026147     -0.026884
Ni	      4.03342     -2.13445      2.13459        -0.007007     -0.010164      0.010071
Ni	      6.15387     -0.06515      2.11359         0.062158     -0.015160      0.015564
O	      2.11033     -2.14086      2.14126        -0.155856     -0.004143      0.003471
O	      6.14661      1.95821      2.13860        -0.019039      0.083387     -0.083382
O	      4.10532     -2.24401      4.29252         0.000286     -0.070286      0.070070
O	      6.03670      0.00403      4.09289         0.099165     -0.083147      0.083855
O	      4.10744      4.33077     -2.28271         0.090148      0.021383     -0.021568
O	      2.04213      2.07294      2.02388         0.002610      0.006104     -0.005971
O	      4.08943      1.94378      0.10462        -0.003307     -0.014474      0.014686
O	      4.06445      0.05972      1.98866        -0.076575      0.061120     -0.060530
