# total energy = -589.80154226 eV
 
CRYSTAL
PRIMVEC
4.457012 8.901337 4.411027 
9.049400 -4.519225 -4.420289 
4.518357 4.356100 -8.698616 
PRIMCOORD
94 1
Li	      4.76547      1.91877     -2.29512         0.361081      0.161710      0.060561
Li	      7.13916      4.47775     -6.85538         0.284673     -0.202466      0.901729
Li	      9.42966     -0.17923     -4.61428        -0.541173      0.508135     -0.000072
Li	     11.88892      2.16631     -9.17926         0.182209      0.325032      0.264522
Li	      7.26615      6.92731      0.00272        -0.094000      0.091613     -0.081452
Li	      9.41165      9.16381     -4.50972         0.225260     -0.807980     -0.042163
Li	     11.80503      4.62747     -2.24304        -0.466699      0.357709     -0.366206
Li	     14.15290      6.81564     -6.85727        -0.557714     -0.164550      0.059122
Li	      4.95153      0.21352     -4.39797         0.128605      0.028017     -0.289257
Li	      7.07553      2.21378     -9.07473         0.363196     -0.516166      0.577544
Li	      9.42947     -2.29121     -6.85341        -0.331801      0.919257     -0.140367
Li	     12.02733      0.26108    -11.26750        -0.357028     -0.240901      0.262208
Li	      7.27363      4.61712     -2.28119         0.393572      0.122960     -0.281452
Li	      9.39918      6.67882     -6.80285         0.072572     -0.601801      0.278906
Li	     11.56462      2.20706     -4.55957        -0.457005      0.461093     -0.589011
Li	     14.16110      4.69681     -9.12767        -0.380887     -0.026004      0.421189
Li	      7.03282      2.19694     -4.59580        -0.032987      0.265751      0.201005
Li	      9.40684      4.55958     -9.07315         0.220171      0.093190      0.611577
Li	     11.57207     -0.09984     -6.84222        -0.479137     -0.047068      0.300618
Li	     14.14806      2.21110    -11.42058        -0.876543      0.093066      1.523592
Li	      9.40763      7.00272     -2.22621         0.175215     -0.013052     -0.539984
Li	     11.67092      9.21078     -6.75099        -0.605880     -0.249896      0.299332
Li	     14.07243      4.90479     -4.54459        -1.103404     -0.268998     -0.152815
Li	     16.42000      6.89828     -9.07565        -1.254995      0.046542      0.942324
Mn	      9.40259      4.56721     -4.52713         0.221937      0.092392     -0.165341
Mn	      7.20004      2.43912     -0.40836        -0.733028     -0.929125      3.750093
Mn	      5.05872      6.85139     -2.51355        -2.470449      0.682947     -0.202857
Mn	      2.54229      4.82754      1.92526        -0.072370     -4.681076      1.483628
Mn	      7.25565      0.29530     -6.64262         0.041096     -5.690605     -0.812119
Mn	      4.92930     -2.17484     -2.68298        -0.023070      2.973732     12.658240
Mn	      2.36706      2.27149     -4.51821         2.802928      2.912091      0.339543
Mn	      0.77227      0.39874     -0.37314        -6.101937     -9.419697      4.888414
Mn	      2.38255      2.25530     -0.00415         7.318513      2.915829      0.231502
Mn	      4.72830      4.57121     -4.68491         4.596653     -1.836401     -1.074447
Mn	      7.10371     -0.07995     -2.30448         0.720549      0.697462     -0.791904
Mn	      9.43967      2.22666     -6.85441         0.454317      1.012515      0.659817
Mn	      4.65276      6.97437      2.46396         4.531165     -1.479551     -2.673319
Mn	      6.99855      9.29131     -2.21691         3.114485     -2.096286     -1.098600
Mn	      9.39811      4.59744      0.01408         0.209682     -0.995058     -1.936597
Mn	     11.73476      6.90356     -4.53580        -0.673133      0.070421      0.027463
Mn	      2.55748      0.37303     -2.11357         1.685161     -3.901494    -13.749787
Mn	      4.76219      2.23871     -6.84921         1.827072      3.116180      1.611605
Mn	      7.12531     -2.37229     -4.60887         0.437920      5.245984     -2.145856
Mn	      9.65543      0.29293     -8.95950        -1.296520     -3.361503     -0.918042
Mn	      4.73033      4.49118      0.09327         2.301406     -1.520478     -0.887849
Mn	      7.04218      6.91470     -4.53826         0.997524     -0.628746     -0.734720
Mn	      9.43572      2.25680     -2.31375        -0.708256      0.916618     -3.564769
Mn	     11.84197      4.58028     -6.82394        -0.498339      0.298775      0.233069
O	      4.89835     -0.23058     -2.30187         0.640852      1.104776     -0.508497
O	      7.09005      2.02044     -6.86867        -0.499805      3.449071      0.437244
O	      9.67612     -2.51221     -4.63402        -2.776673      7.693744      0.043394
O	     12.02778     -0.30055     -9.09620        -3.543890      1.101774      0.944699
O	      6.91651      4.44802     -0.15317         0.134877     -0.005527     -0.949769
O	      9.53979      6.72574     -4.49854        -0.155756     -0.847374      0.037830
O	     11.95364      2.06811     -2.37413        -1.895340      2.886107     -0.688309
O	     14.30006      4.56308     -6.81561        -2.667590      0.661494      0.304659
O	      6.96221      2.06607     -2.16739         0.009718      0.206864     -1.758411
O	      9.37925      4.49468     -6.66334         0.079374     -0.966018      0.996683
O	      2.84968      4.29172     -0.10782        -2.122323      1.747627     -0.100329
O	      5.03250      6.45533     -4.72763        -1.769758      0.819402      1.076018
O	      9.32764      6.88621      0.16797        -1.172859     -0.046087    -10.822388
O	     11.64791      9.04194     -4.38944        -0.083306     -0.959893      0.372278
O	      4.97944      8.91143      2.27108        -2.239535      0.975755     -2.327142
O	      7.37844     11.25867     -2.25917        -2.305867     -0.788367     -0.174078
O	      4.80897      2.43098     -4.69161         0.419001      0.574643      0.038683
O	      2.61327      0.28001     -0.55176         3.070761     -0.666506     11.212776
O	      9.51052     -0.06310     -7.00775         0.513346      2.151036      0.449553
O	      7.39330     -2.02203     -2.84249        -0.154771      0.050079      2.826302
O	      6.93921      7.05120     -2.31297         1.552338      0.399198      0.432006
O	      4.95920      5.08322      1.91593        -0.351734      0.475400      1.180347
O	     11.87645      4.75746     -4.67363        -0.024017      0.528934     -0.574683
O	      9.66289      2.52587     -0.56919        -0.474582     -0.061000      2.628218
O	      4.53817      2.26017     -0.02433        -0.316736      0.367770     -0.862862
O	      6.88444      4.75489     -4.46558        -0.018091      0.157398      0.269413
O	      9.29856      0.09816     -2.34085         0.404685      1.506523     -0.734887
O	     11.92203      2.37549     -6.68767         0.674707      0.379599     -0.061522
O	      6.81050      7.12331      2.25694        -0.250599      0.134527     -1.271023
O	      9.16085      9.33612     -2.20617        -0.825130     -1.420898     -0.484606
O	     11.74722      4.80390      0.02779        -0.889886     -2.774315     -1.900422
O	     13.94045      7.05435     -4.53901        -0.119501     -0.161703     -0.743020
O	      2.45218      2.14292     -2.39893         0.452943      2.680031      0.833000
O	      4.78171      4.46068     -6.96561         2.132145     -0.657996      0.523505
O	      7.12274     -0.20547     -4.70858         0.176338      1.189939      0.510548
O	      9.50654      2.05034     -9.23258         0.551613      1.867929      1.158997
O	      7.02679      9.05654     -4.62616         0.807619     -0.771045     -0.622230
O	      9.43846      4.43180     -2.38307        -0.214353     -0.630785     -0.650614
O	     11.76441      6.75733     -6.97280         0.456964     -1.060247     -0.598938
O	      7.07623      7.04134     -6.68528        -0.356459      0.523323     -0.131113
O	      9.40001      2.39178     -4.45775         0.227878      0.612664      0.593497
O	     11.79591      4.61776     -8.95811        -0.129362      0.484926      1.069244
O	      6.93002      9.40245      0.17814        -0.205483     -2.236828     -0.726432
O	      9.32063     11.63839     -4.34505         0.218482     -1.151593      0.009188
O	     11.71462      7.02922     -2.13198        -0.232213     -0.849194     -0.933552
O	     14.05361      9.32532     -6.69721        -0.278631     -3.405276      0.328123
