# total energy = -617.44345120 eV
 
CRYSTAL
PRIMVEC
4.265083 8.518026 4.221078 
8.659713 -4.324617 -4.229941 
4.323787 4.168517 -8.324034 
PRIMCOORD
94 1
Li	      4.36389      1.75708     -2.10171        -0.006295      0.000537     -0.000026
Li	      6.53754      4.10041     -6.27767         0.003255     -0.014189     -0.008373
Li	      8.63503     -0.16413     -4.22544         0.017825     -0.002454      0.000030
Li	     10.88703      1.98376     -8.40571        -0.010187      0.001133     -0.000498
Li	      6.65384      6.34355      0.00249        -0.030652     -0.007691     -0.009663
Li	      8.61853      8.39157     -4.12969         0.000125      0.007954     -0.010990
Li	     10.81023      4.23751     -2.05402        -0.015930      0.010475     -0.016924
Li	     12.96024      6.24128     -6.27941         0.004377      0.009447     -0.003569
Li	      8.61569      8.34675      0.01195        -0.004395      0.001590      0.002948
Li	      6.47928      2.02722     -8.31001         0.000443     -0.006117     -0.004460
Li	      8.63485     -2.09813     -6.27587         0.005190     -0.003391     -0.004000
Li	     15.09521      8.39031     -6.27868        -0.000610      0.007901      0.007158
Li	      6.66068      4.22803     -2.08895        -0.001522      0.007865      0.008311
Li	      8.60711      6.11600     -6.22958        -0.002397      0.010233     -0.007960
Li	     10.59007      2.02106     -4.17534         0.005718     -0.006481     -0.008972
Li	     12.96775      4.30101     -8.35848         0.002327     -0.007181      0.005657
Li	      6.44017      2.01181     -4.20852         0.016989     -0.012196      0.014352
Li	      8.61412      4.17535     -8.30856        -0.000835     -0.008049      0.006737
Li	     10.59689     -0.09142     -6.26562         0.027863      0.007573      0.008437
Li	     12.95580      2.02477    -10.45817        -0.000465     -0.008320      0.010498
Li	      8.61485      6.41261     -2.03861        -0.016200      0.002943     -0.000588
Li	     10.68742      8.43459     -6.18208         0.007448     -0.004115      0.001958
Li	     12.88654      4.49146     -4.16162         0.002079     -0.002946     -0.000637
Li	     15.03628      6.31697     -8.31085        -0.001199      0.017205      0.008382
Mn	      8.61023      4.18233     -4.14563        -0.004992     -0.031714      0.005443
Mn	     10.73089      6.22258     -8.33954         0.010376      0.003720      0.008698
Mn	     12.91923      2.13563     -6.34953         0.015860     -0.062826      0.051606
Mn	      6.46565      8.40973     -6.20257         0.003882     -0.006835      0.000415
Mn	     10.72564      8.42163     -2.04354         0.004563     -0.007106     -0.006288
Mn	      8.65151      1.99745    -10.42248        -0.002064     -0.011667      0.016778
Mn	      2.16758      2.08007     -4.13746        -0.000723     -0.003562      0.019133
Mn	     17.21301      8.36700     -8.31576        -0.007578      0.014846      0.019120
Mn	      2.18177      2.06525     -0.00380         0.017673      0.002963      0.000421
Mn	      4.32984      4.18599     -4.29012         0.006065      0.033883      0.061660
Mn	      6.50509     -0.07321     -2.11028         0.001136     -0.005867      0.009940
Mn	      8.64418      2.03902     -6.27678         0.020115      0.000423      0.005488
Mn	      4.26068      6.38664      2.25633         0.001296     -0.029292     -0.060235
Mn	      6.40880      8.50833     -2.03010        -0.017727     -0.010048     -0.003440
Mn	      8.60613      4.21002      0.01291        -0.021917     -0.004652     -0.006541
Mn	     10.74587      6.32180     -4.15356        -0.004063      0.008389     -0.012287
Mn	      6.42339      8.49282      2.10385        -0.001002      0.000777     -0.016197
Mn	      4.36088      2.05004     -6.27204         0.010091     -0.009377     -0.020037
Mn	      6.52486     -2.17238     -4.22049        -0.006613      0.000036      0.004005
Mn	     12.92318      8.41947     -4.16518         0.002625      0.015676     -0.015658
Mn	      4.33171      4.11271      0.08541        -0.014872      0.060794     -0.049777
Mn	      6.44874      6.33199     -4.15582        -0.002201      0.000573      0.001024
Mn	      8.64057      2.06662     -2.11877         0.004642      0.030902     -0.003599
Mn	     10.84405      4.19430     -6.24889        -0.012819     -0.004445     -0.006563
O	      4.48556     -0.21115     -2.10788        -0.005806      0.001441      0.003688
O	      6.49256      1.85018     -6.28984        -0.048792     -0.005313      0.007600
O	      8.86071     -2.30051     -4.24351        -0.005203      0.010672     -0.002453
O	     11.01419     -0.27523     -8.32965         0.007017     -0.001253     -0.012435
O	      6.33366      4.07319     -0.14026         0.018671     -0.014524      0.010418
O	      8.73586      6.15896     -4.11944        -0.000941     -0.004450     -0.009914
O	     10.94631      1.89383     -2.17407         0.007157     -0.001389      0.010443
O	     13.09498      4.17855     -6.24125         0.020060      0.055002      0.003567
O	      6.37550      1.89197     -1.98474        -0.004210     -0.001899     -0.007542
O	      8.58886      4.11592     -6.10182        -0.012802      0.054557      0.011291
O	     10.89634     -0.20833     -4.14652        -0.024242      0.000933      0.010377
O	     12.89522      1.77294     -8.37702         0.011133     -0.025873     -0.040851
O	      8.54160      6.30591      0.15382         0.013387      0.057906      0.003391
O	     10.66634      8.27998     -4.01954        -0.010250      0.011465     -0.001675
O	     12.84664      4.02208     -1.96809        -0.012747      0.000238      0.004832
O	     15.04348      6.17152     -6.11658         0.000572      0.018716     -0.008346
O	      4.40372      2.22612     -4.29624         0.017818     -0.002699      0.001387
O	      6.53064      4.24542     -8.47084        -0.002322     -0.016807      0.004734
O	      8.70907     -0.05778     -6.41721        -0.018244     -0.047775     -0.009133
O	     10.90786      2.13738    -10.56853         0.010889     -0.008719      0.005171
O	      6.35444      6.45700     -2.11806         0.022298      0.003065     -0.002688
O	      8.67889      8.64387     -6.21111        -0.006761      0.023341      0.039096
O	     10.87563      4.35655     -4.27978         0.000139     -0.004414      0.008978
O	     12.98619      6.30203     -8.48681         0.008492     -0.060753     -0.007262
O	      4.15574      2.06970     -0.02229        -0.019656     -0.050803     -0.007105
O	      6.30429      4.35420     -4.08926        -0.008965      0.006461     -0.014498
O	      8.51496      0.08989     -2.14358        -0.000537      0.002330      0.001246
O	     10.91736      2.17531     -6.12411        -0.022195      0.012327     -0.006066
O	      6.23659      6.52303      2.06675        -0.005731      0.006027      0.009313
O	      8.38886      8.54936     -2.02026         0.016933     -0.017097      0.004200
O	     10.75728      4.39907      0.02545         0.052934      0.002002     -0.002820
O	     12.76569      6.45988     -4.15650         0.001252     -0.006246      0.001002
O	      2.24554      1.96232     -2.19677        -0.001960     -0.003639     -0.022174
O	      4.37875      4.08478     -6.37861        -0.000333      0.013773     -0.018915
O	      6.52251     -0.18816     -4.31179         0.000398      0.000764     -0.022491
O	      8.70543      1.87756     -8.45455        -0.003614     -0.007878     -0.047345
O	      6.43465      8.29335     -4.23632        -0.002813      0.007631     -0.009983
O	      8.64308      4.05834     -2.18224         0.006366     -0.000076     -0.055331
O	     10.77302      6.18788     -6.38519        -0.002098     -0.000267     -0.023932
O	      6.47992      6.44797     -6.12191        -0.001535     -0.002626      0.011578
O	      8.60787      2.19023     -4.08209        -0.007149      0.002971      0.056229
O	     10.80188      4.22861     -8.20321         0.002441      0.001286      0.022568
O	      6.34603      8.61010      0.16313        -0.002028      0.006473      0.020510
O	      8.53518     10.65763     -3.97889        -0.000728     -0.018110      0.013591
O	     10.72744      6.43686     -1.95233         0.003952      0.006667      0.021559
O	     12.86931      8.53946     -6.13284         0.005048      0.009244      0.045273
