# total energy = -616.95043312 eV
 
CRYSTAL
PRIMVEC
4.230446 8.436470 4.213718 
8.584200 -4.271231 -4.241056 
4.287192 4.177449 -8.404706 
PRIMCOORD
94 1
Li	      4.31427      2.03534     -2.08163        -0.003793      0.042851      0.061752
Li	      6.44061      4.15414     -6.29787         0.006024     -0.008812     -0.010479
Li	      8.61668     -0.07186     -4.25919         0.018970     -0.012495      0.009527
Li	     10.80801      2.03640     -8.71586        -0.023423     -0.012477     -0.033048
Li	      6.54256      6.29625      0.01191         0.378426     -0.039218     -0.004373
Li	      8.55052      8.38685     -4.16270         0.010517      0.006430     -0.045407
Li	     10.72014      4.22486     -2.13335        -0.053761      0.059418      0.096144
Li	     12.82696      6.30774     -6.31990        -0.013801      0.070665     -0.034441
Li	      4.29751     -0.02749     -4.22211         0.029053     -0.031325      0.020751
Li	     10.60578     10.47496     -4.18210         0.016805      0.001091      0.025391
Li	      8.57835     -2.10341     -6.31106         0.010834      0.035057      0.013200
Li	     14.94605      8.29891     -6.34534        -0.019314      0.008033     -0.041630
Li	      6.40881      4.16237     -2.11820        -0.042886     -0.045144      0.021803
Li	      8.60531      6.18923     -6.32429        -0.019733     -0.006531     -0.058232
Li	     10.59849      2.11088     -4.01380        -0.490739      0.028693      0.090190
Li	     12.79389      4.11302     -8.44626        -0.000163      0.013253     -0.059369
Li	      6.34976      2.06021     -4.25294         0.005829     -0.012728      0.016558
Li	      8.58724      4.18744     -8.40683        -0.011654      0.051427     -0.001454
Li	     10.71211     -0.31664     -6.34339         0.058213     -0.052491      0.007841
Li	     12.84311      1.98664    -10.54840        -0.017076     -0.015290      0.002360
Li	      8.49659      6.29682     -2.13005         0.031817     -0.018249      0.041692
Li	     10.64243      8.31780     -6.32331         0.004549     -0.012515     -0.014786
Li	     12.77660      4.35937     -4.19282         0.033351      0.379142      0.033996
Li	     14.92501      6.25450     -8.44651        -0.037153      0.044273      0.029589
Mn	      8.55737      4.16536     -4.20061        -0.133007     -0.024326      0.024202
Mn	     10.65012      6.24003     -8.39146        -0.058156      0.104032     -0.056335
Mn	      4.31930      6.28035     -2.06227         0.211145      0.093617     -0.720246
Mn	      6.38547      8.36058     -6.27146        -0.002374     -0.173445     -0.062559
Mn	     10.60760      8.36722     -2.09280         0.026241     -0.026101      0.041618
Mn	      8.56751      2.02083    -10.48705         0.085134     -0.007336     -0.082125
Mn	      6.35787     10.49138      0.02538        -0.006834      0.114056      0.023823
Mn	     17.06935      8.31655     -8.41761        -0.087592      0.096533      0.123171
Mn	      2.16863      2.05046      0.02255         0.101395     -0.055151     -0.023712
Mn	      4.26356      4.19101     -4.20986        -0.002244     -0.047848      0.025511
Mn	      6.43068     -0.01696     -2.13475         0.014824     -0.016737     -0.018778
Mn	      8.49108      2.04680     -6.33073        -0.058779     -0.009165     -0.032273
Mn	      4.24354      6.32631      2.12197         0.068051     -0.064800      1.154248
Mn	      6.36209      8.41878     -2.08893         0.136332      0.117283     -0.054186
Mn	      8.52109      4.19701     -0.02131        -0.159266     -0.115368      0.008093
Mn	     10.67297      6.28179     -4.21827         0.038301      0.207249      0.009456
Mn	      2.17131     -0.00764     -2.12330         0.096795      0.144750      0.113083
Mn	      4.29388      2.09458     -6.32887         0.011629      0.055537      0.036762
Mn	      6.46537     -2.12709     -4.25118        -0.025838     -0.116532      0.054264
Mn	      8.62892     -0.04986     -8.42185         0.028528      0.046175     -0.043852
Mn	      4.28257      4.20586     -0.00984         0.358261     -0.895624      0.223557
Mn	      6.42013      6.30036     -4.22725        -0.028230     -0.049685     -0.123709
Mn	      8.55688      2.09546     -2.14323        -0.091119     -0.000423      0.117505
Mn	     10.79388      4.21044     -6.31009        -0.181435      0.236896     -0.180794
O	      4.42614     -0.19065     -2.14518        -0.028620     -0.014734     -0.001212
O	      6.43207      1.88356     -6.34048         0.012565      0.000276     -0.008454
O	      8.74448     -2.32335     -4.25559         0.011033     -0.007468     -0.010535
O	     10.86263     -0.24165     -8.44431        -0.002252     -0.028191     -0.017047
O	      6.45138      4.07109     -0.06291         0.252349      0.132784      0.027576
O	      8.67951      6.13468     -4.21529         0.023542      0.056722      0.018697
O	     10.84425      1.88974     -2.13557         0.107771      0.093203     -0.252593
O	     12.92923      4.00974     -6.27999        -0.050252     -0.022624      0.212439
O	      6.32945      1.94271     -1.98752         0.025048     -0.004399     -0.036104
O	      8.60336      4.06742     -6.16239         0.003972      0.019818      0.005744
O	     10.72718     -0.21429     -4.10218        -0.437359      0.327919      0.087400
O	     12.73368      1.86334     -8.39696        -0.003423      0.140408      0.005911
O	      8.45400      6.14868      0.13353        -0.072810      0.346269      0.074752
O	     10.58840      8.24656     -4.06620        -0.019426     -0.005147      0.007958
O	     12.74163      4.00222     -1.99396        -0.017478     -0.066115     -0.304700
O	     14.85432      6.12670     -6.18038        -0.016309     -0.071657     -0.003951
O	      4.34258      2.22301     -4.34100        -0.013307     -0.041820     -0.007796
O	      6.49937      4.25990     -8.54495         0.020570     -0.051314     -0.061103
O	      8.73254      0.02622     -6.45648         0.007288     -0.034310      0.032829
O	     10.81017      2.18935    -10.68819        -0.001081      0.008219      0.014781
O	      6.45345      6.42155     -2.23015        -0.144811      0.006373      0.205102
O	      8.62735      8.58425     -6.47511        -0.029542      0.516519      0.767389
O	     10.78176      4.29626     -4.24483         0.248804     -0.478990     -0.010786
O	     12.89359      6.42098     -8.56229         0.018147     -0.319535     -0.090933
O	      4.13360      2.11730      0.02172        -0.040804     -0.356052      0.056106
O	      6.26406      4.33564     -4.20195         0.047352      0.012838     -0.020858
O	      8.43930      0.13296     -2.13986         0.017870      0.020454      0.004510
O	      6.22592      6.46909      2.08687        -0.101286     -0.056335     -0.175581
O	      8.36657      8.54819     -2.08019        -0.072181     -0.030234      0.004082
O	     10.52941      4.33353     -0.00695         0.304663      0.121439     -0.009632
O	     12.67144      6.41815     -4.19444        -0.015743     -0.112009      0.002293
O	      2.18965      1.96078     -2.22436        -0.031254     -0.067050     -0.064588
O	      4.29031      4.07486     -6.43910         0.016935     -0.024169      0.001695
O	      6.46456     -0.15174     -4.35108        -0.000058      0.039864     -0.040202
O	      8.69477      1.92859     -8.49979        -0.013029      0.037657     -0.053338
O	      6.40982      8.27170     -4.31617        -0.013088      0.011098      0.011644
O	      8.54628      4.06162     -2.24329         0.016391      0.007727     -0.092170
O	     10.71374      6.30573     -6.44740         0.011773     -0.060254      0.084451
O	      4.19264      4.31367     -1.91953        -0.205751      0.231644     -0.998678
O	      6.39562      6.39130     -6.18270        -0.005694      0.026310      0.030450
O	      8.59755      2.17600     -4.13806         0.106280     -0.040462      0.024697
O	     10.72041      4.24740     -8.34330         0.026728     -0.089124      0.022847
O	      6.32515      8.51233      0.13000        -0.147492     -0.206435     -0.012541
O	      8.45723     10.61454     -4.07854         0.003094     -0.079257     -0.171485
O	     10.64075      6.39074     -1.98472         0.002162      0.010828     -0.061836
O	     12.79410      8.49805     -6.17471        -0.013945      0.012668      0.078471
