# total energy = -18.62499181 eV
 
CRYSTAL
PRIMVEC
0.000401 1.941257 1.942303 
1.947761 -1.941673 0.000817 
3.915830 1.962873 -1.963112 
PRIMCOORD
4 1
Li	      1.84947     -1.83790     -0.00072        -0.334148     -0.479584      0.226859
Ni	      3.71049      0.01378     -0.01129         1.668666     -1.049025     -0.266848
O	      3.66063      1.79881      0.04444         0.639244      1.749408     -1.957781
O	      1.91003      0.07266     -0.06766        -1.973762     -0.220799      1.997770
