# total energy = -19.00539312 eV
 
CRYSTAL
PRIMVEC
0.000408 1.971908 1.972971 
1.978515 -1.972331 0.000830 
3.977659 1.993866 -1.994108 
PRIMCOORD
4 1
Li	      1.90833     -1.89640     -0.00074        -0.211124     -0.284046      0.139921
Ni	      3.82859      0.01422     -0.01164         0.978661     -0.564632     -0.162674
O	      3.77715      1.85606      0.04586         0.407327      0.803164     -1.464648
O	      1.97083      0.07497     -0.06982        -1.174865      0.045514      1.487401
