# total energy = -19.17302964 eV
 
CRYSTAL
PRIMVEC
0.000412 1.992342 1.993417 
1.999018 -1.992769 0.000838 
4.018879 2.014527 -2.014773 
PRIMCOORD
4 1
Li	      1.94809     -1.93591     -0.00076        -0.138829     -0.184060      0.092037
Ni	      3.90835      0.01451     -0.01189         0.650213     -0.371872     -0.094733
O	      3.85584      1.89473      0.04681         0.516732      0.534441     -0.898253
O	      2.01188      0.07653     -0.07127        -1.028117      0.021491      0.900949
