# total energy = -19.23975028 eV
 
CRYSTAL
PRIMVEC
0.000414 2.002559 2.003639 
2.009269 -2.002989 0.000842 
4.039488 2.024858 -2.025105 
PRIMCOORD
4 1
Li	      1.96812     -1.95581     -0.00076        -0.107228     -0.143204      0.070209
Ni	      3.94853      0.01466     -0.01201         0.495574     -0.288203     -0.072742
O	      3.89548      1.91421      0.04729         0.475328      0.487032     -0.665518
O	      2.03257      0.07732     -0.07200        -0.863674     -0.055626      0.668051
