# total energy = -19.29378261 eV
 
CRYSTAL
PRIMVEC
0.000416 2.012776 2.013862 
2.019520 -2.013208 0.000847 
4.060098 2.035189 -2.035437 
PRIMCOORD
4 1
Li	      1.98826     -1.97582     -0.00077        -0.078443     -0.103913      0.051143
Ni	      3.98893      0.01481     -0.01213         0.351982     -0.205963     -0.051390
O	      3.93533      1.93380      0.04778         0.394567      0.386594     -0.499124
O	      2.05336      0.07811     -0.07274        -0.668107     -0.076718      0.499370
