# total energy = -91.90070790 eV
 
CRYSTAL
PRIMVEC
-2.037365 4.160818 -2.038124 
2.050353 4.173414 2.051056 
2.094708 -0.006303 -6.184626 
PRIMCOORD
16 1
Li	      0.07031      6.24580     -2.09598         0.016622      0.000594     -0.013767
Li	      0.02310      4.15805     -4.09888        -0.002891      0.001157      0.001348
Li	      2.02647      6.24554     -4.05298         0.000444     -0.000872     -0.003679
Li	      0.10066      2.07792     -2.13979        -0.025427      0.000920      0.029061
Mn	     -2.01247      4.15885     -2.06248         0.031576      0.000312     -0.048358
Mn	      2.08795      4.15886     -6.16512         0.003373     -0.001442      0.011932
Ni	      2.06356      4.16500     -2.05165        -0.022153      0.002745      0.023710
Ni	      2.05312      2.07838     -4.09199         0.013911      0.001515     -0.021699
O	      0.12097      4.15229     -6.26957         0.114296     -0.094175     -0.005486
O	      0.14362      1.98976     -4.10475        -0.140189      0.120066     -0.003896
O	      2.19180      4.16534     -4.19792         0.008932      0.091745     -0.106368
O	      1.94957      4.18429      0.07272        -0.036675     -0.010276      0.062640
O	      2.06500      2.16705     -2.18297         0.008890     -0.122604      0.149918
O	      1.97642      6.13255     -6.16706         0.110025     -0.067833      0.002829
O	     -0.05896      4.14592     -1.93660        -0.069497      0.009742      0.037737
O	      2.09100      2.18494     -6.05245        -0.011236      0.068409     -0.115922
