# total energy = -19.36327215 eV
 
CRYSTAL
PRIMVEC
0.000420 2.033211 2.034307 
2.040023 -2.033647 0.000855 
4.101317 2.055851 -2.056101 
PRIMCOORD
4 1
Li	      2.02884     -2.01614     -0.00079        -0.025295     -0.034049      0.014303
Ni	      4.07034      0.01512     -0.01238         0.103933     -0.062190     -0.015656
O	      4.01565      1.97326      0.04875         0.233802      0.167500     -0.214071
O	      2.09527      0.07971     -0.07423        -0.312440     -0.071260      0.215424
