# total energy = -19.38244617 eV
 
CRYSTAL
PRIMVEC
0.000427 2.063862 2.064975 
2.070777 -2.064305 0.000868 
4.163146 2.086844 -2.087098 
PRIMCOORD
4 1
Li	      0.01969     -0.01309     -0.00168         0.042707      0.046309     -0.024213
Ni	      2.12321      2.07988     -0.01363        -0.166972      0.093627      0.028210
O	      4.13764      2.03320      0.05023         0.042854     -0.156936      0.112216
O	      2.15892      0.08213     -0.07648         0.081411      0.016999     -0.116213
