# total energy = -19.34649993 eV
 
CRYSTAL
PRIMVEC
0.000431 2.084296 2.085420 
2.091280 -2.084743 0.000877 
4.204365 2.107506 -2.107762 
PRIMCOORD
4 1
Li	      0.04079     -0.03399     -0.00170         0.077229      0.092224     -0.044879
Ni	      2.18616      2.10063     -0.01389        -0.290647      0.160298      0.049832
O	      4.21997      2.07366      0.05123        -0.073966     -0.360537      0.264633
O	      2.20188      0.08376     -0.07800         0.287383      0.108016     -0.269586
