# total energy = -19.27728365 eV
 
CRYSTAL
PRIMVEC
0.000435 2.104731 2.105866 
2.111783 -2.105182 0.000885 
4.245584 2.128167 -2.128426 
PRIMCOORD
4 1
Li	      0.06229     -0.05530     -0.00173         0.106087      0.134882     -0.062288
Ni	      2.24994      2.12138     -0.01415        -0.378879      0.198993      0.067860
O	      4.30312      2.11452      0.05224        -0.187040     -0.541504      0.375079
O	      2.24527      0.08541     -0.07954         0.459833      0.207629     -0.380651
