# total energy = -19.23154684 eV
 
CRYSTAL
PRIMVEC
0.000437 2.114948 2.116088 
2.122034 -2.115401 0.000890 
4.266194 2.138498 -2.138759 
PRIMCOORD
4 1
Li	      0.07320     -0.06610     -0.00174         0.117550      0.154006     -0.069217
Ni	      2.28214      2.13176     -0.01429        -0.406979      0.213133      0.072821
O	      4.34500      2.13510      0.05275        -0.243314     -0.623151      0.422366
O	      2.26712      0.08624     -0.08031         0.532744      0.256013     -0.425969
