# total energy = -19.17954802 eV
 
CRYSTAL
PRIMVEC
0.000439 2.125165 2.126311 
2.132286 -2.125621 0.000894 
4.286804 2.148829 -2.149091 
PRIMCOORD
4 1
Li	      0.08421     -0.07701     -0.00175         0.126158      0.173536     -0.074012
Ni	      2.31455      2.14214     -0.01442        -0.429166      0.221553      0.077976
O	      4.38708      2.15578      0.05326        -0.297258     -0.701530      0.464750
O	      2.28908      0.08708     -0.08109         0.600266      0.306441     -0.468713
