# total energy = -19.05677664 eV
 
CRYSTAL
PRIMVEC
0.000444 2.145599 2.146756 
2.152788 -2.146059 0.000903 
4.328023 2.169491 -2.169755 
PRIMCOORD
4 1
Li	      0.10654     -0.09914     -0.00178         0.144828      0.213574     -0.085842
Ni	      2.37997      2.16289     -0.01469        -0.457273      0.226564      0.087102
O	      4.47186      2.19744      0.05429        -0.397575     -0.842613      0.546644
O	      2.33331      0.08876     -0.08266         0.710020      0.402475     -0.547904
