# total energy = -91.60519330 eV
 
CRYSTAL
PRIMVEC
4.084257 0.000010 0.000000 
0.000006 4.141195 -4.074264 
-0.000002 6.274476 2.099643 
PRIMCOORD
16 1
Li	      2.04133      2.21821      0.07294         0.000557     -0.034473     -0.038208
Li	      4.08340      4.17767      0.00075         0.000008      0.002428     -0.043628
Li	      2.04130      6.16711      0.00369        -0.000108      0.035617      0.037101
Li	      2.04133      4.17505     -1.94442        -0.000433     -0.016934     -0.017366
Mn	      4.08345      6.27630      2.07598         0.000369      0.025533     -0.046747
Mn	      4.08345      2.09297     -1.99603         0.001139      0.033160      0.084383
Ni	      4.08348      6.19157     -1.98686        -0.000139     -0.040651     -0.009041
Ni	      2.04132      8.29797     -2.05522         0.000181      0.097946      0.081282
O	      2.04132      4.16923      0.11967        -0.000283     -0.012041      0.102837
O	      4.08345      6.42714      0.11291        -0.000034     -0.040447      0.061698
O	      2.04134      6.33748     -2.01765        -0.000230      0.092060     -0.021945
O	      4.08345      8.40618     -1.87245        -0.000499     -0.002084     -0.084437
O	      2.04132      8.36395     -0.03565        -0.000694      0.005156     -0.137231
O	      4.08344      4.08890     -2.13841         0.000271     -0.048662      0.074159
O	      2.04134     10.29667     -2.00695        -0.000423     -0.168923     -0.023463
O	      4.08345      1.92925     -0.04913         0.000317      0.072315     -0.019394
