# total energy = -36.90597520 eV
 
CRYSTAL
PRIMVEC
0.000000 1.877917 1.877750 
4.106546 -0.000014 0.000013 
-0.000057 3.885552 -3.885286 
PRIMCOORD
8 1
Li	      0.00500      1.82234      1.76111        -0.267745     -0.341517      0.550065
Li	      1.96574      1.78926      0.00383         0.354691     -0.442674      0.305650
Ni	      0.00459      3.62306     -0.03791        -0.973109      1.951655      1.720708
Ni	      1.96547      3.69915     -1.90767         0.923530     -1.241135     -2.417466
O	      0.00461      1.90487     -0.11276        -0.407691     -3.482818      1.289632
O	      1.96543      3.75670     -0.17203         1.076670     -1.195654      3.149353
O	      0.00454      3.56512     -1.77383        -1.058373      1.127702     -2.948657
O	      1.96552      5.41746     -1.83263         0.352027      3.624441     -1.649287
