# total energy = -37.31111245 eV
 
CRYSTAL
PRIMVEC
0.000000 1.887749 1.887581 
4.128046 -0.000015 0.000013 
-0.000057 3.905895 -3.905628 
PRIMCOORD
8 1
Li	      0.00505      1.84147      1.77960        -0.228166     -0.290853      0.463031
Li	      1.98638      1.80805      0.00387         0.294658     -0.379110      0.264372
Ni	      0.00464      3.66109     -0.03831        -0.794367      1.618062      1.425208
Ni	      1.98611      3.73799     -1.92770         0.755599     -0.997752     -2.026434
O	      0.00466      1.92487     -0.11394        -0.341306     -2.963022      1.142894
O	      1.98606      3.79614     -0.17383         0.894001     -1.062212      2.678384
O	      0.00459      3.60255     -1.79245        -0.880732      0.984430     -2.502674
O	      1.98616      5.47434     -1.85187         0.300313      3.090457     -1.444779
