# total energy = -37.94707792 eV
 
CRYSTAL
PRIMVEC
0.000000 1.907413 1.907243 
4.171047 -0.000015 0.000013 
-0.000058 3.946582 -3.946311 
PRIMCOORD
8 1
Li	      0.00515      1.88003      1.81687        -0.158832     -0.202389      0.304349
Li	      2.02798      1.84591      0.00395         0.191147     -0.266653      0.193427
Ni	      0.00474      3.73776     -0.03911        -0.503280      1.043520      0.929850
Ni	      2.02770      3.81627     -1.96807         0.478892     -0.607061     -1.361608
O	      0.00476      1.96518     -0.11633        -0.227117     -2.044537      0.863459
O	      2.02765      3.87563     -0.17747         0.588641     -0.801637      1.854833
O	      0.00469      3.67800     -1.82999        -0.576450      0.728567     -1.725327
O	      2.02775      5.58898     -1.89065         0.206999      2.150190     -1.058983
