# total energy = -38.18639926 eV
 
CRYSTAL
PRIMVEC
0.000000 1.917245 1.917075 
4.192547 -0.000015 0.000013 
-0.000058 3.966925 -3.966653 
PRIMCOORD
8 1
Li	      0.00521      1.89946      1.83565        -0.124896     -0.159538      0.239346
Li	      2.04894      1.86499      0.00400         0.145755     -0.215022      0.158717
Ni	      0.00479      3.77640     -0.03952        -0.383458      0.803637      0.727911
Ni	      2.04866      3.85572     -1.98842         0.364717     -0.450467     -1.079585
O	      0.00481      1.98549     -0.11753        -0.176598     -1.641298      0.727365
O	      2.04861      3.91569     -0.17930         0.458389     -0.679479      1.490491
O	      0.00474      3.71601     -1.84891        -0.451072      0.610303     -1.384979
O	      2.04871      5.64675     -1.91020         0.167163      1.731864     -0.879265
