# total energy = -38.34768632 eV
 
CRYSTAL
PRIMVEC
0.000000 1.927077 1.926906 
4.214047 -0.000015 0.000013 
-0.000058 3.987268 -3.986995 
PRIMCOORD
8 1
Li	      0.00526      1.91899      1.85452        -0.094477     -0.119588      0.181705
Li	      2.07001      1.88416      0.00403         0.109172     -0.170449      0.126273
Ni	      0.00483      3.81523     -0.03992        -0.283394      0.588397      0.551883
Ni	      2.06973      3.89536     -2.00886         0.270635     -0.308877     -0.831286
O	      0.00486      2.00591     -0.11874        -0.129369     -1.281750      0.604304
O	      2.06967      3.95596     -0.18115         0.339076     -0.572434      1.171780
O	      0.00478      3.75422     -1.86792        -0.335554      0.507509     -1.085181
O	      2.06978      5.70481     -1.92984         0.123912      1.357193     -0.719477
