# total energy = -38.63807286 eV
 
CRYSTAL
PRIMVEC
0.000000 1.946741 1.946568 
4.257048 -0.000015 0.000013 
-0.000059 4.027955 -4.027678 
PRIMCOORD
8 1
Li	      0.00537      1.95836      1.89256        -0.043538     -0.047753      0.073520
Li	      2.11247      1.92282      0.00412         0.046019     -0.084452      0.066382
Ni	      0.00493      3.89349     -0.04074        -0.115213      0.229829      0.260168
Ni	      2.11218      3.97526     -2.05007         0.111654     -0.101950     -0.388442
O	      0.00496      2.04706     -0.12117        -0.058013     -0.644872      0.352067
O	      2.11213      4.03711     -0.18486         0.150271     -0.335719      0.593405
O	      0.00488      3.83123     -1.90623        -0.147279      0.302218     -0.553184
O	      2.11223      5.82183     -1.96942         0.056100      0.682698     -0.403915
