# total energy = -38.71153177 eV
 
CRYSTAL
PRIMVEC
0.000000 1.956573 1.956399 
4.278548 -0.000015 0.000013 
-0.000059 4.048298 -4.048020 
PRIMCOORD
8 1
Li	      0.00542      1.97819      1.91172        -0.019529     -0.013427      0.027890
Li	      2.13386      1.94229      0.00416         0.018836     -0.050231      0.037553
Ni	      0.00499      3.93291     -0.04116        -0.051674      0.077556      0.144542
Ni	      2.13357      4.01552     -2.07083         0.050227     -0.021960     -0.211166
O	      0.00501      2.06779     -0.12240        -0.024984     -0.377880      0.240495
O	      2.13352      4.07799     -0.18674         0.067274     -0.230616      0.356859
O	      0.00493      3.87003     -1.92553        -0.065582      0.216469     -0.331122
O	      2.13362      5.88079     -1.98937         0.025433      0.400088     -0.265051
