# total energy = -38.76490428 eV
 
CRYSTAL
PRIMVEC
0.000000 1.976237 1.976061 
4.321548 -0.000015 0.000013 
-0.000060 4.088984 -4.088704 
PRIMCOORD
8 1
Li	      0.00554      0.04191     -0.02572         0.017035      0.040324     -0.050149
Li	      2.17697      1.98152      0.00424        -0.017615      0.017910     -0.012068
Ni	      0.00509      2.03612     -2.01805         0.042832     -0.155016     -0.040515
Ni	      2.17667      4.09664     -2.11266        -0.039635      0.098817      0.101501
O	      0.00510      2.10956     -0.12487         0.022024      0.073369      0.040054
O	      2.17662      2.18413     -2.16657        -0.058227     -0.049731     -0.052024
O	      0.00503      3.94820     -1.96443         0.059404      0.070559      0.036995
O	      2.17673      4.02335     -4.00562        -0.025819     -0.096233     -0.023795
