# total energy = -90.56386418 eV
 
CRYSTAL
PRIMVEC
4.161384 -0.000101 -0.001798 
0.001798 -0.000057 -4.123135 
2.081403 8.292660 -2.062534 
PRIMCOORD
16 1
Li	      2.08155      2.21006     -4.12569         0.001566     -0.036109     -0.001337
Li	      4.16210      4.04525     -4.12695         0.000928     -0.052405     -0.001135
Li	      2.08185      6.09094     -4.12620        -0.002244      0.036692      0.002801
Li	      4.16116      2.17218     -2.06493         0.002800     -0.043723     -0.000655
Mn	      4.16254      0.02363     -4.12690        -0.001865      0.054442      0.002180
Mn	      2.08093      0.09075     -2.06447        -0.000878      0.035056     -0.000269
Ni	      2.08064      4.05567     -2.06443         0.000732     -0.006524     -0.000873
Ni	      4.16125      6.14000     -2.06528         0.001481      0.159222     -0.001284
O	      4.16136      4.18301     -2.06540         0.000693     -0.105572     -0.000684
O	      2.08037      6.33835     -2.06423         0.004281      0.015104     -0.004523
O	      4.16228      1.84955     -4.12684         0.004849      0.060734      0.001678
O	      2.08153      4.13460     -4.12608        -0.001643     -0.003985     -0.000433
O	      4.16132      8.25091     -2.06552        -0.003560      0.001343      0.002040
O	      4.16209      6.46752     -4.12687        -0.000813     -0.083629      0.000199
O	      4.16174      0.03153     -2.06536         0.000117     -0.009485      0.001209
O	      2.08120      1.96891     -2.06443        -0.006443     -0.021160      0.001086
