# total energy = -38.75010673 eV
 
CRYSTAL
PRIMVEC
0.000000 1.986069 1.985893 
4.343049 -0.000015 0.000013 
-0.000060 4.109327 -4.109046 
PRIMCOORD
8 1
Li	      0.00559      0.05221     -0.01609         0.032781      0.066448     -0.080886
Li	      2.19868      2.00129      0.00428        -0.032641      0.048122     -0.032329
Ni	      0.00514      2.06632     -2.02830         0.075358     -0.248286     -0.117339
Ni	      2.19838      4.13751     -2.13374        -0.078205      0.135996      0.235015
O	      0.00516      2.13060     -0.12612         0.042135      0.261317     -0.048177
O	      2.19833      2.21580     -2.17830        -0.105304      0.026359     -0.216560
O	      0.00508      3.98759     -1.98403         0.108759      0.012876      0.182138
O	      2.19844      4.07336     -4.03569        -0.042884     -0.302833      0.078138
