# total energy = -38.71235349 eV
 
CRYSTAL
PRIMVEC
0.000000 1.995901 1.995724 
4.364549 -0.000015 0.000013 
-0.000061 4.129671 -4.129388 
PRIMCOORD
8 1
Li	      0.00565      0.06261     -0.00637         0.047911      0.088034     -0.108595
Li	      2.22051      2.02115      0.00433        -0.043952      0.078657     -0.051484
Ni	      0.00519      2.09671     -2.03855         0.101588     -0.332355     -0.181621
Ni	      2.22020      4.17857     -2.15492        -0.109027      0.170429      0.345680
O	      0.00521      2.15175     -0.12737         0.058842      0.419776     -0.120232
O	      2.22015      2.24767     -2.19004        -0.145476      0.089898     -0.353732
O	      0.00513      4.02717     -2.00372         0.152659     -0.031076      0.303769
O	      2.22026      4.12367     -4.06587        -0.062545     -0.483363      0.166216
