# total energy = -38.65436692 eV
 
CRYSTAL
PRIMVEC
0.000000 2.005733 2.005555 
4.386049 -0.000015 0.000013 
-0.000061 4.150014 -4.149729 
PRIMCOORD
8 1
Li	      0.00570      0.07311      0.00345         0.060347      0.107598     -0.134686
Li	      2.24244      2.04111      0.00437        -0.053346      0.106138     -0.068818
Ni	      0.00524      2.12730     -2.04881         0.118115     -0.400770     -0.233407
Ni	      2.24213      4.21984     -2.17620        -0.129017      0.192655      0.440982
O	      0.00526      2.17300     -0.12863         0.074599      0.560532     -0.189737
O	      2.24208      2.27975     -2.20179        -0.182385      0.151214     -0.475653
O	      0.00518      4.06694     -2.02351         0.189555     -0.069678      0.414916
O	      2.24219      4.17428     -4.09615        -0.077867     -0.647688      0.246405
