# total energy = -38.57806960 eV
 
CRYSTAL
PRIMVEC
0.000000 2.015565 2.015386 
4.407549 -0.000016 0.000014 
-0.000061 4.170357 -4.170071 
PRIMCOORD
8 1
Li	      0.00576      0.08371      0.01336         0.071053      0.123320     -0.159578
Li	      2.26447      2.06117      0.00442        -0.060281      0.133804     -0.084402
Ni	      0.00529      2.15808     -2.05906         0.128724     -0.457188     -0.280491
Ni	      2.26417      4.26131     -2.19758        -0.144163      0.217121      0.522449
O	      0.00531      2.19435     -0.12989         0.082499      0.671300     -0.239342
O	      2.26411      2.31204     -2.21355        -0.207791      0.190514     -0.564942
O	      0.00524      4.10691     -2.04340         0.218366     -0.093776      0.496625
O	      2.26429      0.05482      0.04355        -0.088407     -0.785094      0.309680
