# total energy = -38.48710051 eV
 
CRYSTAL
PRIMVEC
0.000000 2.025397 2.025217 
4.429049 -0.000016 0.000014 
-0.000061 4.190700 -4.190413 
PRIMCOORD
8 1
Li	      0.00581      0.09441      0.02337         0.080797      0.139495     -0.181070
Li	      2.28662      2.08133      0.00446        -0.067070      0.160491     -0.096598
Ni	      0.00534      2.18907     -2.06932         0.133287     -0.512999     -0.312923
Ni	      2.28631      4.30299     -2.21908        -0.153880      0.244686      0.589039
O	      0.00536      2.21582     -0.13116         0.087370      0.759372     -0.278800
O	      2.28626      2.34453     -2.22532        -0.224710      0.206311     -0.629553
O	      0.00529      4.14707     -2.06338         0.238156     -0.093616      0.550626
O	      2.28643      0.08569      0.03341        -0.093949     -0.903739      0.359280
