# total energy = -38.14273400 eV
 
CRYSTAL
PRIMVEC
0.000000 2.054893 2.054711 
4.493550 -0.000016 0.000014 
-0.000062 4.251730 -4.251438 
PRIMCOORD
8 1
Li	      0.00598      0.12710      0.05398         0.098784      0.180893     -0.246191
Li	      2.35371      2.14240      0.00459        -0.073369      0.245746     -0.125255
Ni	      0.00550      2.28322     -2.10010         0.102558     -0.610614     -0.384403
Ni	      2.35339      4.42923     -2.28418        -0.140351      0.288504      0.715456
O	      0.00552      2.28083     -0.13501         0.082209      0.947128     -0.364256
O	      2.35333      2.44324     -2.26069        -0.241399      0.247575     -0.751626
O	      0.00544      4.26875     -2.12392         0.262765     -0.093589      0.671935
O	      2.35350      0.18004      0.00240        -0.091196     -1.205643      0.484340
