# total energy = -38.00833114 eV
 
CRYSTAL
PRIMVEC
0.000000 2.064725 2.064542 
4.515050 -0.000016 0.000014 
-0.000063 4.272073 -4.271780 
PRIMCOORD
8 1
Li	      0.00604      0.13820      0.06437         0.101912      0.191888     -0.267162
Li	      2.37629      2.16295      0.00463        -0.075772      0.273802     -0.128466
Ni	      0.00555      2.31500     -2.11037         0.081858     -0.627002     -0.392766
Ni	      2.37596      4.47172     -2.30609        -0.125900      0.299117      0.736174
O	      0.00558      2.30270     -0.13631         0.077044      0.989330     -0.394701
O	      2.37590      2.47656     -2.27250        -0.236774      0.259150     -0.777775
O	      0.00549      4.30969     -2.14429         0.260721     -0.096075      0.700183
O	      2.37608      0.21209     -0.00814        -0.083088     -1.290210      0.524513
