# total energy = -55.46817845 eV
 
CRYSTAL
PRIMVEC
0.000038 1.881100 1.881035 
6.156905 1.910343 -0.029103 
0.000106 3.876211 -3.875970 
PRIMCOORD
12 1
Li	      5.86429      1.85074     -0.05820         0.472641     -0.156218      0.107939
Li	      1.95978      1.81991     -0.02688         0.058485     -0.503216      0.354313
Li	      3.93492      3.61267     -0.02424         0.276308      0.013199      0.293150
Ni	      0.01635      3.62489     -0.03517        -1.225389      1.626204      1.992749
Ni	      1.95982      3.67111     -1.87731        -0.433676     -1.408798     -2.257250
Ni	      3.90340      5.51419     -1.92413         1.078425      4.340717     -1.857001
O	      0.00549      1.90462     -0.11059        -0.590354     -3.350687      1.419699
O	      1.95675      3.73880     -0.14885         0.971035     -1.074495      3.161271
O	      3.91132      3.77797     -1.98484         1.581450     -2.481247      0.720526
O	      0.00843      3.56364     -1.77098        -1.819924      1.246858     -3.045173
O	      1.96296      5.40012     -1.81036        -0.810805      3.304408     -1.394793
O	      3.91382      1.73622      0.05760         0.441805     -1.556725      0.504568
