# total energy = -91.14338691 eV
 
CRYSTAL
PRIMVEC
-0.000033 2.070992 2.070184 
8.242019 2.105280 -2.104666 
-0.011608 4.233350 -4.231921 
PRIMCOORD
16 1
Li	      4.20187      2.16249     -2.16113         0.003732     -0.022201      0.021336
Li	      5.98084      4.26945     -2.19814         0.005203      0.010399     -0.009919
Li	      8.11410      6.27119     -2.13038         0.017726     -0.016624      0.017797
Li	      4.24140      4.17385     -4.17247        -0.021857      0.021675     -0.022341
Mn	      8.21031      4.17002     -0.02922         0.027874      0.030756     -0.030460
Mn	      2.18418      2.11581     -0.04496         0.121136      0.023058     -0.023231
Ni	      2.15923      4.17137     -2.09971        -0.042907      0.001707     -0.002275
Ni	      6.06964      6.28249     -4.21073        -0.047268      0.021250     -0.020739
O	      6.20451      4.30650     -4.30507         0.012463     -0.114675      0.115140
O	      0.06014      4.34655     -2.27516        -0.057212      0.044253     -0.043760
O	      6.34280      4.12343      0.01725         0.072003      0.066868     -0.067036
O	      0.11304      1.95876      0.11092        -0.045253     -0.039533      0.038236
O	      1.95205      2.07982     -2.07781        -0.025274     -0.070750      0.069793
O	      4.06404      4.19696     -2.12501         0.173084      0.001626     -0.002422
O	      1.94766      6.30588     -2.16504        -0.094199      0.045732     -0.043321
O	      4.01220      2.10173     -0.03080        -0.099251     -0.003540      0.003202
