# total energy = -56.06729793 eV
 
CRYSTAL
PRIMVEC
0.000038 1.890949 1.890883 
6.189140 1.920345 -0.029256 
0.000106 3.896505 -3.896263 
PRIMCOORD
12 1
Li	      5.92585      1.87018     -0.05881         0.401321     -0.137688      0.092532
Li	      1.98036      1.83902     -0.02716         0.045361     -0.423478      0.304629
Li	      3.97623      3.65060     -0.02450         0.233694     -0.001682      0.248573
Ni	      0.01652      3.66295     -0.03554        -1.020337      1.335440      1.667329
Ni	      1.98040      3.70966     -1.89702        -0.375164     -1.143445     -1.893733
Ni	      3.94438      5.57208     -1.94434         0.881700      3.767506     -1.638313
O	      0.00555      1.92462     -0.11175        -0.500801     -2.844421      1.239696
O	      1.97729      3.77806     -0.15042         0.828071     -0.963441      2.687098
O	      3.95238      3.81763     -2.00567         1.338036     -2.116694      0.646847
O	      0.00852      3.60105     -1.78958        -1.550913      1.090729     -2.579652
O	      1.98357      5.45682     -1.82937        -0.672773      2.809883     -1.222007
O	      3.95491      1.75445      0.05821         0.391805     -1.372709      0.447001
