# total energy = -56.57914171 eV
 
CRYSTAL
PRIMVEC
0.000038 1.900798 1.900731 
6.221375 1.930347 -0.029408 
0.000107 3.916799 -3.916556 
PRIMCOORD
12 1
Li	      5.98774      1.88971     -0.05942         0.339815     -0.113240      0.072796
Li	      2.00104      1.85823     -0.02745         0.035054     -0.350473      0.259820
Li	      4.01776      3.68872     -0.02475         0.190424     -0.009964      0.204209
Ni	      0.01670      3.70120     -0.03591        -0.836767      1.076640      1.380567
Ni	      2.00108      3.74840     -1.91683        -0.323711     -0.916583     -1.563519
Ni	      3.98557      5.63027     -1.96464         0.712949      3.227535     -1.421636
O	      0.00561      1.94472     -0.11292        -0.417007     -2.384306      1.069886
O	      1.99793      3.81752     -0.15199         0.695071     -0.856769      2.254036
O	      3.99366      3.85750     -2.02662         1.114623     -1.779379      0.569942
O	      0.00861      3.63866     -1.80827        -1.301138      0.941355     -2.157187
O	      2.00428      5.51381     -1.84848        -0.549139      2.352151     -1.055756
O	      3.99621      1.77278      0.05881         0.339825     -1.186968      0.386840
