# total energy = -58.03422504 eV
 
CRYSTAL
PRIMVEC
0.000039 1.950041 1.949973 
6.382551 1.980356 -0.030170 
0.000110 4.018271 -4.018021 
PRIMCOORD
12 1
Li	      6.30201      1.98889     -0.06254         0.078623     -0.012590      0.005486
Li	      2.10606      1.95575     -0.02888         0.004343     -0.080205      0.060619
Li	      4.22863      3.88233     -0.02605         0.048346     -0.022714      0.053602
Ni	      0.01757      3.89546     -0.03779        -0.196756      0.160017      0.332253
Ni	      2.10611      3.94513     -2.01743        -0.082218     -0.152160     -0.340178
Ni	      4.19476      5.92578     -2.06776         0.152396      0.861709     -0.417712
O	      0.00590      2.04678     -0.11884        -0.101484     -0.625837      0.354890
O	      2.10280      4.01787     -0.15996         0.202389     -0.325213      0.596900
O	      4.20326      4.05996     -2.13299         0.266316     -0.489012      0.247308
O	      0.00906      3.82963     -1.90317        -0.318011      0.322800     -0.561482
O	      2.10948      5.80320     -1.94549        -0.152582      0.612554     -0.348736
O	      4.20595      1.86582      0.06190         0.098636     -0.249348      0.017050
