# total energy = -58.17964909 eV
 
CRYSTAL
PRIMVEC
0.000040 1.989436 1.989367 
6.511491 2.020363 -0.030780 
0.000112 4.099448 -4.099193 
PRIMCOORD
12 1
Li	      0.04772      0.04970     -0.03432        -0.089225      0.051060     -0.037329
Li	      2.19201      2.03557     -0.03007        -0.004981      0.064991     -0.049930
Li	      4.40121      4.04077     -0.02712        -0.024066     -0.001384     -0.005539
Ni	      0.01825      2.06500     -2.02870         0.084402     -0.214978     -0.151818
Ni	      2.19207      4.10614     -2.09977         0.080865      0.108759      0.244504
Ni	      4.36595      6.16762     -2.15214        -0.044688     -0.726845      0.317363
O	      0.00614      2.13032     -0.12369         0.072130      0.226642     -0.033774
O	      2.18862      4.18186     -0.16649        -0.036175      0.009768     -0.209298
O	      4.37481      4.22566     -2.22004        -0.183262      0.157731      0.028139
O	      0.00943      3.98593     -1.98084         0.228882     -0.004011      0.192325
O	      2.19557      6.04004     -2.02489        -0.007406     -0.239596      0.035378
O	      4.37760      1.94197      0.06443        -0.076477      0.567864     -0.330021
