# total energy = -91.65780718 eV
 
CRYSTAL
PRIMVEC
-0.000006 2.077251 2.077131 
4.153773 -4.276753 4.277082 
4.055789 4.229251 -4.229695 
PRIMCOORD
16 1
Li	      4.19085      4.09363      0.05913        -0.012177      0.002034     -0.002961
Li	      2.22648     -0.24020      2.31475         0.025944     -0.005056      0.005636
Li	      4.05496      1.94303      2.20848        -0.055490      0.000658     -0.000819
Li	      3.99898      0.12159      4.03016        -0.015845      0.003355     -0.004226
Mn	      0.01214      2.07176      2.08017         0.049248      0.007405     -0.008171
Mn	      2.13646      2.12958     -0.05467         0.028339     -0.018157      0.018107
Ni	      6.03627      2.12635     -0.05167         0.004465     -0.074748      0.077438
Ni	      6.07621     -0.04755      2.12230         0.074244     -0.042192      0.043899
O	      6.11400      4.09155      0.06022         0.005991      0.129101     -0.127935
O	      6.30794      2.04084      2.11108         0.098609      0.028100     -0.030313
O	      4.21530     -2.31830      4.39333         0.065512     -0.025945      0.025878
O	      2.03017      4.11418      0.03788         0.018587     -0.052591      0.052211
O	      4.04148      4.36360     -2.28926         0.069837      0.035191     -0.036849
O	      1.96159      2.21974      1.93230        -0.031100      0.003402     -0.003763
O	      3.96483      2.10062     -0.02532        -0.125714      0.004976     -0.006463
O	      4.16865     -0.04158      2.11615        -0.200451      0.004467     -0.001667
