# total energy = -58.00927981 eV
 
CRYSTAL
PRIMVEC
0.000040 2.009133 2.009063 
6.575961 2.040366 -0.031084 
0.000113 4.140036 -4.139779 
PRIMCOORD
12 1
Li	      0.11377      0.07089     -0.03531        -0.156376      0.080557     -0.053553
Li	      2.23564      2.07608     -0.03066        -0.013943      0.120816     -0.092096
Li	      4.48880      4.12118     -0.02765        -0.053962      0.013079     -0.024131
Ni	      0.01861      2.12599     -2.04918         0.192391     -0.326413     -0.313264
Ni	      2.23569      4.18785     -2.14156         0.148207      0.177333      0.448680
Ni	      4.45284      6.29035     -2.19497        -0.093855     -1.459790      0.652277
O	      0.00627      2.17271     -0.12615         0.126069      0.497128     -0.154502
O	      2.23217      4.26507     -0.16981        -0.125403      0.107059     -0.443183
O	      4.46187      4.30975     -2.26422        -0.348102      0.371661     -0.059834
O	      0.00962      4.06525     -2.02027         0.425478     -0.093370      0.411829
O	      2.23926      6.16024     -2.06519         0.048166     -0.500191      0.134804
O	      4.46472      1.98061      0.06571        -0.148670      1.012131     -0.507028
