# total energy = -57.64491573 eV
 
CRYSTAL
PRIMVEC
0.000041 2.028831 2.028760 
6.640431 2.060370 -0.031389 
0.000114 4.180625 -4.180365 
PRIMCOORD
12 1
Li	      0.18112      0.09248     -0.03631        -0.201447      0.110310     -0.071676
Li	      2.27969      2.11699     -0.03127        -0.033804      0.167697     -0.123369
Li	      4.57724      4.20239     -0.02820        -0.085009      0.028151     -0.028376
Ni	      0.01898      2.18777     -2.06967         0.313607     -0.413018     -0.419211
Ni	      2.27974      4.27037     -2.18376         0.194011      0.227053      0.597896
Ni	      4.54057      6.41430     -2.23822        -0.142930     -2.150525      0.952640
O	      0.00639      2.21552     -0.12864         0.143439      0.683202     -0.230431
O	      2.27615      4.34911     -0.17315        -0.192112      0.112972     -0.551641
O	      4.54978      4.39467     -2.30883        -0.462269      0.515669     -0.131192
O	      0.00981      4.14535     -2.06007         0.559144     -0.120419      0.535798
O	      2.28339      6.28162     -2.10588         0.097502     -0.638726      0.139246
O	      4.55269      2.01964      0.06700        -0.190132      1.477632     -0.669685
