# total energy = -57.33924445 eV
 
CRYSTAL
PRIMVEC
0.000041 2.048528 2.048457 
6.704902 2.080374 -0.031694 
0.000115 4.221214 -4.220951 
PRIMCOORD
12 1
Li	      0.24975      0.11448     -0.03733        -0.265084      0.135711     -0.091444
Li	      2.32417      2.15829     -0.03188        -0.059626      0.210305     -0.145451
Li	      4.66655      4.28438     -0.02875        -0.099712      0.044100     -0.032852
Ni	      0.01935      2.25034     -2.09016         0.421856     -0.481428     -0.489313
Ni	      2.32422      4.35369     -2.22636         0.222346      0.257405      0.700320
Ni	      4.62917      6.53945     -2.28190        -0.161633     -2.806845      1.214929
O	      0.00651      2.25875     -0.13115         0.142741      0.798013     -0.269975
O	      2.32057      4.43397     -0.17653        -0.247435      0.151248     -0.651488
O	      4.63856      4.48041     -2.35388        -0.546334      0.615393     -0.185483
O	      0.01000      4.22624     -2.10027         0.642830     -0.102754      0.593750
O	      2.32794      6.40419     -2.14697         0.173037     -0.773448      0.169241
O	      4.64152      2.05904      0.06831        -0.222985      1.952299     -0.812236
