# total energy = -57.11786544 eV
 
CRYSTAL
PRIMVEC
0.000041 2.058377 2.058305 
6.737137 2.090375 -0.031846 
0.000116 4.241508 -4.241244 
PRIMCOORD
12 1
Li	      0.28454      0.12564     -0.03784        -0.298869      0.147604     -0.100161
Li	      2.34657      2.17910     -0.03218        -0.070760      0.229863     -0.153967
Li	      4.71153      4.32568     -0.02903        -0.104113      0.054071     -0.033855
Ni	      0.01954      2.28193     -2.10041         0.459196     -0.503850     -0.513125
Ni	      2.34662      4.39566     -2.24782         0.240206      0.270300      0.732546
Ni	      4.67379      6.60248     -2.30389        -0.159280     -3.138927      1.330744
O	      0.00658      2.28052     -0.13241         0.144355      0.843340     -0.289082
O	      2.34293      4.47671     -0.17823        -0.270751      0.176271     -0.693526
O	      4.68327      4.52360     -2.37657        -0.588846      0.645176     -0.205720
O	      0.01009      4.26697     -2.12051         0.689930     -0.089207      0.607549
O	      2.35037      6.46591     -2.16766         0.199578     -0.842435      0.199243
O	      4.68626      2.07889      0.06897        -0.240648      2.207796     -0.880645
