# total energy = -56.87631092 eV
 
CRYSTAL
PRIMVEC
0.000041 2.068226 2.068153 
6.769372 2.100377 -0.031999 
0.000116 4.261802 -4.261537 
PRIMCOORD
12 1
Li	      0.31966      0.13689     -0.03836        -0.337859      0.159883     -0.108380
Li	      2.36908      2.20000     -0.03249        -0.078481      0.249396     -0.160220
Li	      4.75672      4.36717     -0.02931        -0.108331      0.062094     -0.031564
Ni	      0.01973      2.31372     -2.11066         0.487889     -0.518300     -0.529900
Ni	      2.36913      4.43782     -2.26938         0.260513      0.273080      0.757984
Ni	      4.71862      6.66582     -2.32599        -0.148875     -3.457174      1.433719
O	      0.00663      2.30240     -0.13368         0.153603      0.888197     -0.316321
O	      2.36540      4.51965     -0.17994        -0.293043      0.206445     -0.736313
O	      4.72819      4.56699     -2.39936        -0.629852      0.664599     -0.221556
O	      0.01019      4.30790     -2.14085         0.738078     -0.080834      0.619345
O	      2.37292      6.52793     -2.18846         0.219061     -0.914783      0.235052
O	      4.73121      2.09883      0.06963        -0.262702      2.467398     -0.941845
