# total energy = -54.98502301 eV
 
CRYSTAL
PRIMVEC
1.924114 3.925337 1.925810 
3.855302 -1.967623 -1.923475 
1.920921 1.970214 -3.863004 
PRIMCOORD
12 1
Li	      0.00965      0.00152     -0.01086        -0.964177     -0.093402      0.489893
Li	      1.82864      1.86463     -0.00149        -0.912375     -0.000297      0.661022
Li	      3.64774      3.72956      0.00670         0.078111      0.286884      0.692028
Ni	      3.64902      1.86564     -1.82568        -0.864505     -0.859058      0.301351
Ni	      5.48618      3.73011     -1.83593         2.180130      3.814947      0.232062
Ni	      5.49562      1.86440     -3.67553         3.604958     -0.399358     -4.056156
O	      3.64266      0.14875     -1.82174        -0.077850     -3.614484      0.161401
O	      5.43402      1.96709     -1.87670         1.937905     -3.139531      2.524058
O	      3.71057      1.76326     -3.62399        -2.078180      0.509712     -1.754752
O	      3.67728      1.70948     -0.00971         0.241053      1.350295      1.288836
O	      1.84777      2.01703     -1.85569        -1.768324     -1.262249     -0.239266
O	      3.63423      3.58246     -1.81807        -1.376748      3.406542     -0.300477
