# total energy = -56.20612180 eV
 
CRYSTAL
PRIMVEC
1.944368 3.966656 1.946081 
3.895884 -1.988334 -1.943722 
1.941141 1.990953 -3.903667 
PRIMCOORD
12 1
Li	      0.00985      0.00156     -0.01109        -0.681127     -0.095534      0.364383
Li	      1.86734      1.90409     -0.00152        -0.681731     -0.002533      0.487481
Li	      3.72495      3.80850      0.00684         0.060043      0.203032      0.498436
Ni	      3.72625      1.90512     -1.86431        -0.659130     -0.606562      0.228872
Ni	      5.60229      3.80905     -1.87478         1.568474      2.785463      0.182482
Ni	      5.61193      1.90386     -3.75332         2.690726     -0.291941     -3.036432
O	      3.71975      0.15190     -1.86030        -0.065240     -2.551256      0.122816
O	      5.54902      2.00872     -1.91642         1.338773     -2.316747      1.842655
O	      3.78911      1.80057     -3.70068        -1.611486      0.446985     -1.214291
O	      3.75510      1.74566     -0.00991         0.140689      1.064493      0.853372
O	      1.88688      2.05972     -1.89496        -1.204256     -0.993594     -0.134109
O	      3.71114      3.65827     -1.85654        -0.895734      2.358193     -0.195665
