# total energy = -56.68624192 eV
 
CRYSTAL
PRIMVEC
1.954494 3.987316 1.956217 
3.916175 -1.998690 -1.953845 
1.951251 2.001323 -3.923999 
PRIMCOORD
12 1
Li	      0.00995      0.00157     -0.01121        -0.559300     -0.091768      0.307561
Li	      1.88684      1.92397     -0.00154        -0.572059     -0.003348      0.404214
Li	      3.76384      3.84827      0.00691         0.045011      0.170562      0.422494
Ni	      3.76516      1.92502     -1.88379        -0.590485     -0.501236      0.226213
Ni	      5.66079      3.84883     -1.89436         1.310429      2.329512      0.146508
Ni	      5.67054      1.92374     -3.79252         2.254729     -0.245216     -2.557162
O	      3.75860      0.15348     -1.87972        -0.057809     -2.105609      0.102448
O	      5.60697      2.02970     -1.93643         1.171944     -1.906956      1.511407
O	      3.82868      1.81938     -3.73934        -1.366938      0.373973     -1.068008
O	      3.79432      1.76389     -0.01002         0.104755      0.924731      0.756711
O	      1.90659      2.08123     -1.91475        -1.049963     -0.861058     -0.100742
O	      3.74989      3.69648     -1.87593        -0.690314      1.916414     -0.151644
