# total energy = -92.92439400 eV
 
CRYSTAL
PRIMVEC
-2.082840 4.117198 -2.081672 
2.034996 4.069182 2.034283 
2.102857 0.023608 -6.218105 
PRIMCOORD
16 1
Li	      0.04757      4.11477     -4.21071         0.012931      0.002074     -0.006584
Li	      1.99256      6.14922     -4.11581        -0.013534      0.000223      0.004772
Li	      2.02822      4.11505     -6.18408        -0.009273      0.000527     -0.007011
Li	      2.11539      4.09219     -2.15574         0.002822     -0.003543     -0.008522
Mn	      4.11027      4.09053     -4.15278        -0.027977      0.012511      0.035594
Mn	      0.02301      6.14937     -2.14945         0.027052      0.001643     -0.034872
Ni	      0.01571      2.05753     -2.09431        -0.034928     -0.001194      0.034975
Ni	      2.03597      2.05670     -4.11333        -0.005888      0.001499      0.002919
O	      0.02122      4.17667     -6.36989        -0.012941     -0.146259     -0.054201
O	      1.94585      6.13733     -2.07667        -0.124941      0.002162     -0.125492
O	      2.21148      4.05405     -4.18091         0.053677      0.139279      0.010714
O	      2.03041      3.98438      0.08278         0.006415     -0.083119      0.016219
O	      2.03157      2.04546     -1.99092         0.138775     -0.005069      0.135728
O	     -0.01303      6.25146     -0.14304        -0.034449      0.028602     -0.023266
O	     -0.12849      4.19745     -2.07221        -0.012284      0.089047     -0.016391
O	      0.09840      1.93150     -0.03107         0.034543     -0.038385      0.035418
