# total energy = -57.42586602 eV
 
CRYSTAL
PRIMVEC
1.974748 4.028635 1.976489 
3.956757 -2.019402 -1.974092 
1.971471 2.022062 -3.964662 
PRIMCOORD
12 1
Li	      0.01016      0.00160     -0.01144        -0.348671     -0.079337      0.194471
Li	      1.92615      1.96405     -0.00157        -0.372030     -0.005789      0.259473
Li	      3.84226      3.92844      0.00706         0.007029      0.106309      0.290104
Ni	      3.84360      1.96512     -1.92303        -0.457724     -0.300407      0.213580
Ni	      5.77873      3.92901     -1.93383         0.861153      1.516480      0.077132
Ni	      5.78867      1.96382     -3.87152         1.484828     -0.156102     -1.692452
O	      3.83691      0.15668     -1.91889        -0.045792     -1.354367      0.071546
O	      5.72378      2.07198     -1.97677         0.865939     -1.192252      0.943102
O	      3.90844      1.85728     -3.81723        -0.922472      0.224544     -0.808758
O	      3.87337      1.80064     -0.01023         0.059812      0.673529      0.581078
O	      1.94630      2.12459     -1.95464        -0.764369     -0.629657     -0.048817
O	      3.82801      3.77349     -1.91501        -0.367703      1.197050     -0.080461
