# total energy = -58.13939224 eV
 
CRYSTAL
PRIMVEC
2.055764 4.193912 2.057576 
4.119086 -2.102249 -2.055081 
2.052352 2.105018 -4.127315 
PRIMCOORD
12 1
Li	      0.01101      0.00174     -0.01240         0.198352      0.057772     -0.111744
Li	      2.08744      2.12852     -0.00170         0.152697      0.001067     -0.098316
Li	      2.10822      0.06347     -2.04993        -0.026818     -0.042876     -0.099252
Ni	      4.16544      2.12967     -2.08405         0.097978      0.126666      0.011008
Ni	      4.20684      0.06409     -4.15333        -0.408575     -0.628221     -0.012694
Ni	      6.27338      2.12825     -4.19571        -0.481802      0.071965      0.584283
O	      4.15819      0.16980     -2.07956         0.044281      0.209235     -0.093090
O	      6.20306      2.24548     -2.14230        -0.214637      0.333162     -0.159164
O	      4.23571      2.01280     -4.13687         0.190217      0.013647      0.221150
O	      4.19771      1.95142     -0.01109        -0.031531     -0.049119     -0.241361
O	      2.10928      2.30249     -2.11831         0.345896      0.030401      0.003920
O	      4.14855      4.08946     -2.07536         0.133942     -0.123698     -0.004741
