# total energy = -58.04580525 eV
 
CRYSTAL
PRIMVEC
2.065890 4.214572 2.067712 
4.139377 -2.112605 -2.065204 
2.062462 2.115388 -4.147646 
PRIMCOORD
12 1
Li	      0.01112      0.00176     -0.01252         0.252249      0.076291     -0.130649
Li	      2.10805      2.14954     -0.00172         0.194779     -0.001025     -0.124028
Li	      2.13922      0.08486     -2.05999        -0.020454     -0.054487     -0.137874
Ni	      4.20659      2.15070     -2.10464         0.145298      0.154863     -0.012220
Ni	      4.25857      0.08549     -4.18417        -0.534278     -0.788084     -0.007636
Ni	      6.33534      2.14927     -4.23714        -0.627079      0.091817      0.758552
O	      4.19925      0.17148     -2.10010         0.057919      0.314413     -0.107587
O	      6.26432      2.26766     -2.16346        -0.309301      0.424755     -0.229018
O	      4.27754      2.03268     -4.17772         0.268519      0.003583      0.326689
O	      4.23917      1.97069     -0.01119        -0.040399     -0.111894     -0.324536
O	      2.13011      2.32523     -2.13923         0.459710      0.084627      0.005683
O	      4.18953      4.12985     -2.09586         0.153039     -0.194859     -0.017377
