# total energy = -57.92061779 eV
 
CRYSTAL
PRIMVEC
2.076017 4.235232 2.077847 
4.159668 -2.122961 -2.075328 
2.072572 2.125757 -4.167978 
PRIMCOORD
12 1
Li	      0.01123      0.00177     -0.01265         0.308034      0.096185     -0.146862
Li	      2.12877      2.17066     -0.00174         0.235592     -0.001943     -0.149749
Li	      2.17042      0.10646     -2.07005        -0.018089     -0.063936     -0.173209
Ni	      4.24792      2.17184     -2.12532         0.183308      0.182703     -0.033551
Ni	      4.31060      0.10709     -4.21510        -0.650593     -0.931046     -0.006043
Ni	      6.39761      2.17040     -4.27878        -0.761833      0.103288      0.912553
O	      4.24052      0.17316     -2.12074         0.073678      0.413896     -0.127447
O	      6.32589      2.28995     -2.18472        -0.392841      0.510207     -0.281782
O	      4.31958      2.05265     -4.21878         0.333800     -0.010704      0.425830
O	      4.28082      1.99006     -0.01130        -0.054897     -0.164821     -0.400767
O	      2.15104      2.34808     -2.16025         0.568669      0.130375      0.009722
O	      4.23070      4.17044     -2.11646         0.175172     -0.264203     -0.028696
