# total energy = -57.76855374 eV
 
CRYSTAL
PRIMVEC
2.086144 4.255891 2.087983 
4.179959 -2.133317 -2.085451 
2.082683 2.136127 -4.188309 
PRIMCOORD
12 1
Li	      0.01134      0.00179     -0.01277         0.360435      0.114149     -0.157219
Li	      2.14959      2.19189     -0.00175         0.273121     -0.004269     -0.171075
Li	      2.20182      0.12826     -2.08011        -0.013758     -0.069594     -0.207972
Ni	      4.28947      2.19308     -2.14610         0.217801      0.208322     -0.052986
Ni	      4.36293      0.12890     -4.24614        -0.770994     -1.054426     -0.001517
Ni	      6.46017      2.19162     -4.32063        -0.881115      0.112302      1.045618
O	      4.28200      0.17486     -2.14148         0.089795      0.509319     -0.147424
O	      6.38776      2.31234     -2.20608        -0.467118      0.577268     -0.323197
O	      4.36183      2.07273     -4.26004         0.393585     -0.024002      0.518115
O	      4.32269      2.00952     -0.01141        -0.069619     -0.213655     -0.471233
O	      2.17208      2.37105     -2.18138         0.675316      0.171414      0.013724
O	      4.27207      4.21122     -2.13716         0.192552     -0.326828     -0.044834
