# total energy = -57.59062058 eV
 
CRYSTAL
PRIMVEC
2.096271 4.276551 2.098119 
4.200250 -2.143673 -2.095575 
2.092793 2.146496 -4.208641 
PRIMCOORD
12 1
Li	      0.01145      0.00181     -0.01289         0.417503      0.133442     -0.165578
Li	      2.17051      2.21322     -0.00177         0.304919     -0.007384     -0.193281
Li	      2.23343      0.15026     -2.09017        -0.010989     -0.078481     -0.242993
Ni	      4.33122      2.21442     -2.16699         0.249347      0.232060     -0.071033
Ni	      4.41557      0.15091     -4.27728        -0.886203     -1.163454      0.007247
Ni	      6.52305      2.21295     -4.36268        -0.985487      0.121052      1.160873
O	      4.32367      0.17656     -2.16232         0.104764      0.599306     -0.160281
O	      6.44993      2.33485     -2.22756        -0.531560      0.635769     -0.364070
O	      4.40428      2.09290     -4.30150         0.445172     -0.037103      0.609706
O	      4.36476      2.02908     -0.01152        -0.089420     -0.259610     -0.534692
O	      2.19322      2.39413     -2.20261         0.780970      0.208561      0.013400
O	      4.31365      4.25221     -2.15796         0.200984     -0.384157     -0.059298
