# total energy = -92.06256122 eV
 
CRYSTAL
PRIMVEC
4.041735 0.000024 -0.000002 
-0.000024 4.264041 -4.085844 
-0.000058 6.405120 2.051257 
PRIMCOORD
16 1
Li	      4.04141      4.39886      0.02384        -0.000246      0.004660     -0.010761
Li	      2.02048      6.46499     -0.08125         0.000439      0.047707     -0.005906
Li	      4.04134      8.51029     -0.02226        -0.000353     -0.007307      0.013846
Li	      4.04139      6.31536     -1.93942        -0.000072     -0.010732      0.010956
Mn	      4.04137      6.36815      1.98860         0.000130     -0.048646     -0.094512
Mn	      2.02055      2.18014     -0.02269        -0.000101      0.052732     -0.053380
Ni	      2.02054      4.29395     -1.97223         0.000032      0.047078      0.049071
Ni	      2.02051      8.44318     -1.97836         0.000027     -0.011616      0.009616
O	      2.02055      4.05156      0.03402        -0.000198     -0.102374      0.053270
O	      4.04136      6.37673      0.12701        -0.000120     -0.014057      0.089819
O	      2.02053      6.39405     -2.16666         0.000190     -0.000835     -0.019625
O	      4.04137      8.71500     -2.02962         0.000214      0.157658      0.005039
O	      2.02054      2.23796     -1.95714         0.000224     -0.146950      0.128700
O	      4.04141      4.28673     -2.16303         0.000147      0.002176     -0.073206
O	      2.02056      0.10079      0.02348         0.000266      0.020613     -0.112366
O	      4.04142      1.95125     -0.02167        -0.000581      0.009893      0.009439
