# total energy = -57.16611856 eV
 
CRYSTAL
PRIMVEC
2.116525 4.317870 2.118391 
4.240832 -2.164385 -2.115822 
2.113013 2.167235 -4.249304 
PRIMCOORD
12 1
Li	      0.01167      0.00184     -0.01314         0.533705      0.165217     -0.169518
Li	      2.21266      2.25620     -0.00181         0.365739     -0.016434     -0.234585
Li	      2.29725      0.19490     -2.11029        -0.008003     -0.090949     -0.298676
Ni	      4.41531      2.25742     -2.20907         0.299788      0.275244     -0.100131
Ni	      4.52176      0.19556     -4.33986        -1.111378     -1.334836      0.023454
Ni	      6.64970      2.25592     -4.44739        -1.162717      0.123321      1.344075
O	      4.40762      0.17999     -2.20431         0.136528      0.776983     -0.174713
O	      6.57516      2.38018     -2.27081        -0.644396      0.714202     -0.420149
O	      4.48980      2.13354     -4.38502         0.523408     -0.048847      0.775375
O	      4.44951      2.06847     -0.01175        -0.134488     -0.350380     -0.656615
O	      2.23580      2.44061     -2.24538         1.004993      0.280820      0.012048
O	      4.39741      4.33477     -2.19985         0.196822     -0.494340     -0.100564
