# total energy = -55.16198434 eV
 
CRYSTAL
PRIMVEC
1.938937 3.889291 1.939386 
3.865260 -1.942896 -1.930288 
1.929579 1.943677 -3.867471 
PRIMCOORD
12 1
Li	      7.33330      3.69313     -3.65271         1.582898      0.391686     -0.534116
Li	      1.84946      1.84491     -0.00896        -1.161805     -0.259815      0.632945
Li	      3.64839      1.84536     -1.80720        -0.197010     -0.354486     -0.344223
Ni	      3.68970      3.69203     -0.00667        -0.776102      1.973546      4.961365
Ni	      5.52115      3.69356     -1.84034         3.109134      3.895944      0.394288
Ni	      5.53760      1.84650     -3.69911         1.538186     -0.838197     -3.060576
O	      3.56438      0.03217     -1.88177         0.827662     -1.657551      0.596953
O	      5.63550      1.96832     -1.87440         0.483790     -2.744536      1.619164
O	      3.71059      1.72241     -3.79567        -1.903407     -0.257556     -1.480290
O	      3.64338      1.80882      0.09620        -0.233144     -0.504718      0.494288
O	      1.73941      1.88196     -1.80345        -1.351079     -0.616631     -0.503423
O	      3.72796      3.65839     -1.72448        -1.919122      0.972314     -2.776375
