# total energy = -55.75984469 eV
 
CRYSTAL
PRIMVEC
1.949142 3.909761 1.949593 
3.885603 -1.953121 -1.940447 
1.939735 1.953907 -3.887826 
PRIMCOORD
12 1
Li	      7.41069      3.73210     -3.69126         1.351045      0.355349     -0.472769
Li	      1.86898      1.86438     -0.00905        -1.007062     -0.231744      0.538507
Li	      3.68690      1.86484     -1.82627        -0.175993     -0.303077     -0.299594
Ni	      3.72864      3.73099     -0.00674        -0.703409      1.711097      4.346830
Ni	      5.57942      3.73255     -1.85976         2.716333      3.370873      0.367596
Ni	      5.59605      1.86598     -3.73815         1.320605     -0.732125     -2.656054
O	      3.60199      0.03251     -1.90162         0.712206     -1.461593      0.502090
O	      5.69498      1.98910     -1.89419         0.413536     -2.361191      1.372508
O	      3.74976      1.74060     -3.83573        -1.636280     -0.223407     -1.320440
O	      3.68183      1.82791      0.09722        -0.171838     -0.397164      0.408761
O	      1.75777      1.90182     -1.82248        -1.175997     -0.565375     -0.428933
O	      3.76730      3.69700     -1.74268        -1.643148      0.838358     -2.358503
