# total energy = -56.27773399 eV
 
CRYSTAL
PRIMVEC
1.959347 3.930231 1.959801 
3.905947 -1.963347 -1.950607 
1.949891 1.964137 -3.908181 
PRIMCOORD
12 1
Li	      7.48850      3.77129     -3.73001         1.137875      0.320707     -0.408707
Li	      1.88860      1.88395     -0.00914        -0.862607     -0.204115      0.452709
Li	      3.72561      1.88441     -1.84545        -0.158427     -0.266549     -0.255499
Ni	      3.76779      3.77016     -0.00681        -0.622841      1.471515      3.768301
Ni	      5.63799      3.77174     -1.87928         2.349550      2.886148      0.347884
Ni	      5.65479      1.88557     -3.77740         1.120766     -0.633218     -2.279849
O	      3.63981      0.03285     -1.92159         0.611370     -1.280003      0.414500
O	      5.75477      2.00998     -1.91407         0.346604     -2.009034      1.150467
O	      3.78912      1.75887     -3.87600        -1.398804     -0.184625     -1.165271
O	      3.72049      1.84710      0.09824        -0.118216     -0.306008      0.323083
O	      1.77622      1.92179     -1.84161        -1.006692     -0.511914     -0.362558
O	      3.80685      3.73581     -1.76097        -1.398577      0.717097     -1.985060
