# total energy = -56.72202785 eV
 
CRYSTAL
PRIMVEC
1.969552 3.950701 1.970008 
3.926290 -1.973573 -1.960766 
1.960046 1.974367 -3.928536 
PRIMCOORD
12 1
Li	      7.56670      3.81067     -3.76897         0.946854      0.283326     -0.352222
Li	      1.90832      1.90363     -0.00924        -0.729268     -0.173134      0.377974
Li	      3.76452      1.90409     -1.86472        -0.138213     -0.225168     -0.219160
Ni	      3.80714      3.80954     -0.00688        -0.548912      1.243373      3.221896
Ni	      5.69687      3.81112     -1.89891         1.992772      2.430790      0.326011
Ni	      5.71385      1.90527     -3.81685         0.942150     -0.535875     -1.923503
O	      3.67782      0.03319     -1.94166         0.520782     -1.105571      0.334354
O	      5.81487      2.03097     -1.93406         0.286743     -1.693388      0.951434
O	      3.82869      1.77724     -3.91648        -1.181822     -0.138760     -1.012547
O	      3.75934      1.86639      0.09927        -0.083733     -0.228194      0.245407
O	      1.79477      1.94186     -1.86085        -0.844350     -0.460643     -0.302201
O	      3.84661      3.77483     -1.77937        -1.163003      0.603245     -1.647445
