# total energy = -57.09774839 eV
 
CRYSTAL
PRIMVEC
1.979757 3.971171 1.980215 
3.946634 -1.983799 -1.970926 
1.970202 1.984597 -3.948891 
PRIMCOORD
12 1
Li	      7.64532      3.85026     -3.80813         0.773286      0.242141     -0.293530
Li	      1.92815      1.92341     -0.00934        -0.605118     -0.145899      0.309827
Li	      3.80363      1.92387     -1.88409        -0.115296     -0.190665     -0.181990
Ni	      3.84669      3.84912     -0.00696        -0.476450      1.028986      2.699997
Ni	      5.75606      3.85072     -1.91864         1.655063      2.004788      0.300024
Ni	      5.77322      1.92506     -3.85651         0.780562     -0.442470     -1.594967
O	      3.71604      0.03354     -1.96183         0.438702     -0.935257      0.265024
O	      5.87529      2.05207     -1.95416         0.220005     -1.409118      0.775294
O	      3.86847      1.79570     -3.95717        -0.981648     -0.089242     -0.856188
O	      3.79840      1.88578      0.10030        -0.053496     -0.158846      0.171369
O	      1.81342      1.96203     -1.88018        -0.691512     -0.404305     -0.249575
O	      3.88657      3.81405     -1.79785        -0.944099      0.499888     -1.345284
