# total energy = -57.41065683 eV
 
CRYSTAL
PRIMVEC
1.989962 3.991641 1.990423 
3.966977 -1.994024 -1.981085 
1.980358 1.994827 -3.969247 
PRIMCOORD
12 1
Li	      7.72434      3.89006     -3.84749         0.615096      0.203315     -0.239445
Li	      1.94808      1.94329     -0.00943        -0.487372     -0.118630      0.249534
Li	      3.84294      1.94376     -1.90357        -0.096451     -0.153461     -0.144852
Ni	      3.88645      3.88890     -0.00703        -0.399201      0.829833      2.201332
Ni	      5.81555      3.89053     -1.93847         1.323552      1.603344      0.275205
Ni	      5.83289      1.94496     -3.89636         0.628214     -0.355581     -1.282728
O	      3.75445      0.03388     -1.98211         0.371810     -0.771629      0.202725
O	      5.93602      2.07328     -1.97436         0.159427     -1.148508      0.621270
O	      3.90846      1.81426     -3.99808        -0.798983     -0.040845     -0.698027
O	      3.83766      1.90527      0.10134        -0.029321     -0.104675      0.102711
O	      1.83217      1.98231     -1.89961        -0.539634     -0.344420     -0.203050
O	      3.92674      3.85347     -1.81644        -0.747137      0.401255     -1.084674
