# total energy = -57.66139708 eV
 
CRYSTAL
PRIMVEC
2.000167 4.012111 2.000630 
3.987320 -2.004250 -1.991245 
1.990514 2.005057 -3.989602 
PRIMCOORD
12 1
Li	      7.80377      3.93006     -3.88705         0.476272      0.160572     -0.189839
Li	      1.96811      1.96327     -0.00953        -0.381079     -0.094345      0.192219
Li	      3.88246      1.96375     -1.92314        -0.073685     -0.118134     -0.112502
Ni	      3.92641      3.92889     -0.00710        -0.328626      0.636335      1.732290
Ni	      5.87536      3.93053     -1.95841         1.012018      1.236880      0.252651
Ni	      5.89286      1.96496     -3.93643         0.492882     -0.273021     -0.997008
O	      3.79305      0.03423     -2.00249         0.315625     -0.603757      0.151639
O	      5.99706      2.09460     -1.99466         0.099046     -0.908057      0.484498
O	      3.94865      1.83292     -4.03918        -0.632028      0.002086     -0.540683
O	      3.87712      1.92486      0.10238        -0.015420     -0.061053      0.040613
O	      1.85101      2.00270     -1.91915        -0.397017     -0.282102     -0.158849
O	      3.96712      3.89309     -1.83511        -0.567989      0.304597     -0.855030
