# total energy = -57.85591474 eV
 
CRYSTAL
PRIMVEC
2.010371 4.032581 2.010837 
4.007664 -2.014476 -2.001404 
2.000669 2.015287 -4.009957 
PRIMCOORD
12 1
Li	      7.88360      3.97026     -3.92682         0.345265      0.122679     -0.142925
Li	      1.98825      1.98335     -0.00963        -0.280089     -0.068048      0.142746
Li	      3.92217      1.98384     -1.94281        -0.052338     -0.082835     -0.082942
Ni	      3.96658      3.96908     -0.00717        -0.262231      0.457189      1.281562
Ni	      5.93546      3.97074     -1.97844         0.709110      0.886748      0.222497
Ni	      5.95315      1.98506     -3.97670         0.365971     -0.196981     -0.732866
O	      3.83185      0.03458     -2.02298         0.270631     -0.449057      0.108806
O	      6.05841      2.11603     -2.01507         0.040312     -0.696375      0.364056
O	      3.98904      1.85167     -4.08051        -0.475572      0.050769     -0.376400
O	      3.91678      1.94455      0.10342        -0.001978     -0.026675     -0.019824
O	      1.86994      2.02318     -1.93878        -0.250237     -0.219469     -0.114730
O	      4.00771      3.93292     -1.85389        -0.408844      0.222056     -0.649980
