# total energy = -90.80540642 eV
 
CRYSTAL
PRIMVEC
4.167842 0.000411 0.000504 
-0.000530 0.000590 -4.063826 
2.084147 8.346291 -2.032660 
PRIMCOORD
16 1
Li	      4.16527      4.32687     -4.06265         0.006470     -0.029043      0.000405
Li	      2.08300      6.13620     -4.06600         0.000779     -0.024224      0.001927
Li	      4.17066      8.23381     -4.06554        -0.007148      0.000397      0.002827
Li	      2.08336      4.18903     -2.03077         0.000562      0.010947      0.000183
Mn	      2.08597      8.28386     -2.03348        -0.004557     -0.034586      0.000697
Mn	      2.08459      2.15134     -4.06286         0.002833      0.047561     -0.002773
Ni	      4.16903      2.19344     -2.03115        -0.002702      0.056896      0.005307
Ni	      4.16777      6.15881     -2.03340         0.002264      0.043562      0.001488
O	      4.16718      4.17239     -2.03066        -0.000421      0.025627     -0.001551
O	      2.08385      6.41250     -2.03402         0.001951      0.046937      0.001422
O	      4.16887      1.94655     -4.06260        -0.004782     -0.025953     -0.007850
O	      2.08290      3.96692     -4.06235         0.001382     -0.065062     -0.001687
O	      2.08542      0.08416     -4.06429        -0.000608      0.027323     -0.003091
O	      4.16654      6.25116     -4.06554         0.009931     -0.003850      0.000980
O	      4.16989      0.15126     -2.03197        -0.001865     -0.064839     -0.000509
O	      2.08514      2.10563     -2.03112        -0.004088     -0.011692      0.002227
