# total energy = -57.99845675 eV
 
CRYSTAL
PRIMVEC
2.020576 4.053051 2.021045 
4.028007 -2.024702 -2.011563 
2.010825 2.025516 -4.030312 
PRIMCOORD
12 1
Li	      7.96384      4.01067     -3.96678         0.228982      0.080056     -0.099243
Li	      2.00848      2.00354     -0.00973        -0.187665     -0.044329      0.096990
Li	      3.96209      2.00403     -1.96258        -0.032107     -0.054474     -0.056485
Ni	      4.00695      4.00948     -0.00724        -0.190869      0.295626      0.859049
Ni	      5.99587      4.01115     -1.99857         0.420804      0.567396      0.200728
Ni	      6.01374      2.00526     -4.01718         0.253993     -0.129015     -0.490143
O	      3.87086      0.03494     -2.04357         0.233496     -0.298755      0.072876
O	      6.12007      2.13756     -2.03557        -0.018752     -0.505149      0.257356
O	      4.02964      1.87051     -4.12204        -0.337775      0.100703     -0.212856
O	      3.95665      1.96435      0.10448         0.005038     -0.001482     -0.078859
O	      1.88898      2.04378     -1.95851        -0.104132     -0.155139     -0.076504
O	      4.04850      3.97295     -1.87275        -0.271015      0.144563     -0.472909
