# total energy = -58.08994375 eV
 
CRYSTAL
PRIMVEC
2.030781 4.073521 2.031252 
4.048351 -2.034928 -2.021723 
2.020981 2.035746 -4.050667 
PRIMCOORD
12 1
Li	      8.04448      4.05129     -4.00695         0.126399      0.041229     -0.062001
Li	      2.02882      2.02383     -0.00982        -0.102117     -0.021520      0.057204
Li	      4.00221      2.02432     -1.98246        -0.011885     -0.025707     -0.030656
Ni	      4.04753      4.05008     -0.00732        -0.124843      0.143268      0.449510
Ni	      6.05659      4.05177     -2.01881         0.139505      0.264313      0.169237
Ni	      6.07464      2.02557     -4.05785         0.148994     -0.065393     -0.262940
O	      3.91005      0.03529     -2.06426         0.199715     -0.151412      0.046103
O	      6.18204      2.15921     -2.05619        -0.069692     -0.334653      0.167733
O	      4.07045      1.88946     -4.16378        -0.207966      0.147156     -0.047575
O	      3.99672      1.98424      0.10554         0.004901      0.018679     -0.134948
O	      1.90810      2.06447     -1.97834         0.043360     -0.091680     -0.037409
O	      4.08950      4.01318     -1.89172        -0.146371      0.075721     -0.314259
