# total energy = -58.13944694 eV
 
CRYSTAL
PRIMVEC
2.051191 4.114461 2.051666 
4.089038 -2.055379 -2.042042 
2.041292 2.056206 -4.091377 
PRIMCOORD
12 1
Li	      0.02547      0.01785     -0.00614        -0.059203     -0.039278      0.001162
Li	      2.06981      2.06471     -0.01002         0.053664      0.020394     -0.013587
Li	      4.08307      2.06522     -2.02251         0.023410      0.025369      0.016822
Ni	      2.07810      0.01744     -2.05913         0.006074     -0.122622     -0.316075
Ni	      4.12775      0.01916     -4.11126        -0.393975     -0.266824      0.106394
Ni	      6.19736      2.06649     -4.13983        -0.028178      0.052393      0.136526
O	      3.98904      0.03600     -2.10596         0.153506      0.126214      0.020399
O	      6.30693      2.20283     -2.09773        -0.168920     -0.058156      0.024677
O	      4.15268      1.92763     -4.24789         0.015695      0.243511      0.287125
O	      4.07745      2.02432      0.10767        -0.005031      0.034461     -0.243383
O	      1.94665      2.10618     -2.01831         0.354568      0.034424      0.033444
O	      4.17211      4.09426     -1.92994         0.048390     -0.049887     -0.053504
