# total energy = -58.10208824 eV
 
CRYSTAL
PRIMVEC
2.061396 4.134931 2.061874 
4.109381 -2.065605 -2.052201 
2.051448 2.066436 -4.111732 
PRIMCOORD
12 1
Li	      0.06663      0.03860     -0.02662        -0.138119     -0.080280      0.028230
Li	      2.09045      2.08531     -0.01012         0.121810      0.041601     -0.042747
Li	      4.12380      2.08582     -2.04269         0.042187      0.048869      0.038392
Ni	      2.10909      0.03818     -2.06942         0.072308     -0.239136     -0.675934
Ni	      4.17918      0.03993     -4.14201        -0.651595     -0.503206      0.073110
Ni	      6.25917      2.08710     -4.18112        -0.103446      0.106300      0.310534
O	      4.02883      0.03636     -2.12697         0.134856      0.256198      0.019682
O	      6.36984      2.22480     -2.11865        -0.215301      0.055143     -0.033963
O	      4.19410      1.94686     -4.29027         0.107500      0.291476      0.458366
O	      4.11813      2.04452      0.10874        -0.013591      0.030725     -0.294489
O	      1.96606      2.12719     -2.03844         0.521064      0.096225      0.069248
O	      4.21372      4.13510     -1.94918         0.122328     -0.103914      0.049571
