# total energy = -58.02709765 eV
 
CRYSTAL
PRIMVEC
2.071601 4.155401 2.072081 
4.129725 -2.075831 -2.062360 
2.061603 2.076666 -4.132087 
PRIMCOORD
12 1
Li	      0.10820      0.05956     -0.04729        -0.212709     -0.120612      0.049175
Li	      2.11120      2.10601     -0.01022         0.187098      0.061041     -0.067575
Li	      4.16473      2.10652     -2.06296         0.058176      0.069717      0.058376
Ni	      2.14028      0.05913     -2.07969         0.126422     -0.345361     -1.023907
Ni	      4.23092      0.06089     -4.17287        -0.906490     -0.722509      0.039222
Ni	      6.32130      2.10782     -4.22263        -0.169031      0.156370      0.473345
O	      4.06882      0.03672     -2.14808         0.123737      0.377364      0.024969
O	      6.43306      2.24688     -2.13968        -0.258231      0.148397     -0.078058
O	      4.23573      1.96618     -4.33285         0.196016      0.342805      0.632368
O	      4.15900      2.06481      0.10982        -0.021736      0.026594     -0.349988
O	      1.98558      2.14830     -2.05867         0.695767      0.160475      0.102197
O	      4.25555      4.17614     -1.96853         0.180980     -0.154283      0.139878
