# total energy = -57.59619746 eV
 
CRYSTAL
PRIMVEC
2.102216 4.216811 2.102703 
4.190755 -2.106508 -2.092839 
2.092070 2.107356 -4.193153 
PRIMCOORD
12 1
Li	      0.23534      0.12366     -0.11052        -0.397393     -0.234195      0.090782
Li	      2.17406      2.16871     -0.01053         0.357442      0.118148     -0.134155
Li	      4.28873      2.16925     -2.12438         0.104859      0.129753      0.110787
Ni	      2.23507      0.12321     -2.11054         0.297179     -0.586936     -1.999946
Ni	      4.38796      0.12502     -4.26604        -1.641634     -1.264219     -0.068333
Ni	      6.50952      2.17058     -4.34835        -0.343297      0.271946      0.871483
O	      4.18997      0.03782     -2.21204         0.111634      0.704335      0.080732
O	      6.62461      2.31378     -2.20339        -0.387074      0.351480     -0.157083
O	      4.36185      2.02472     -4.46186         0.398874      0.480517      1.190057
O	      4.28284      2.12629      0.11309        -0.057594     -0.018460     -0.505380
O	      2.04470      2.21227     -2.11997         1.272215      0.325004      0.196699
O	      4.38226      4.30048     -2.02715         0.284789     -0.277374      0.324358
