# total energy = -57.39143818 eV
 
CRYSTAL
PRIMVEC
2.112421 4.237280 2.112910 
4.211099 -2.116734 -2.102998 
2.102226 2.117585 -4.213508 
PRIMCOORD
12 1
Li	      0.27853      0.14543     -0.13200        -0.454948     -0.268598      0.096414
Li	      2.19522      2.18982     -0.01063         0.406018      0.134045     -0.154393
Li	      4.33047      2.19035     -2.14506         0.116613      0.144504      0.124995
Ni	      2.26708      0.14498     -2.12083         0.347079     -0.644523     -2.308002
Ni	      4.44092      0.14681     -4.29730        -1.882899     -1.407734     -0.106313
Ni	      6.57287      2.19170     -4.39067        -0.384608      0.303204      0.978438
O	      4.23075      0.03818     -2.23357         0.112422      0.805057      0.106413
O	      6.68908      2.33630     -2.22483        -0.425532      0.390815     -0.167582
O	      4.40430      2.04443     -4.50529         0.449811      0.524412      1.389788
O	      4.32452      2.14698      0.11419        -0.070925     -0.041834     -0.551633
O	      2.06460      2.23380     -2.14061         1.483645      0.373258      0.228536
O	      4.42491      4.34234     -2.04687         0.303323     -0.312606      0.363339
