# total energy = -56.90235803 eV
 
CRYSTAL
PRIMVEC
2.132831 4.278220 2.133325 
4.251786 -2.137185 -2.123317 
2.122537 2.138045 -4.254218 
PRIMCOORD
12 1
Li	      0.36614      0.18961     -0.17557        -0.555115     -0.342191      0.104113
Li	      2.23785      2.23234     -0.01084         0.499283      0.168488     -0.188604
Li	      4.41456      2.23289     -2.18671         0.143075      0.174932      0.152952
Ni	      2.33171      0.18913     -2.14140         0.435465     -0.726998     -2.905008
Ni	      4.54775      0.19099     -4.36013        -2.368883     -1.655929     -0.184464
Ni	      6.70050      2.23426     -4.47592        -0.458371      0.360543      1.161748
O	      4.31290      0.03893     -2.27693         0.128788      0.991577      0.164935
O	      6.81897      2.38167     -2.26803        -0.496869      0.440604     -0.175608
O	      4.48982      2.08412     -4.59276         0.530429      0.606263      1.800697
O	      4.40849      2.18867      0.11641        -0.099339     -0.100905     -0.628070
O	      2.10469      2.27717     -2.18217         1.926996      0.457030      0.289189
O	      4.51082      4.42665     -2.08662         0.314541     -0.373416      0.408119
