# total energy = -72.57457905 eV
 
CRYSTAL
PRIMVEC
1.943278 3.892543 1.917755 
3.902073 -1.951883 -1.922067 
-0.003005 3.899361 -3.845947 
PRIMCOORD
16 1
Li	      0.01906      0.03106     -0.04005        -0.659732     -0.301178      0.141333
Li	      1.81491      1.85640      0.00737        -0.307607     -0.291766      0.792427
Li	      1.84042      0.02699     -1.76874        -0.380360     -0.761362      0.225865
Li	      1.86068      5.49042      0.00049        -0.113805      1.016641      0.690170
Ni	      3.72162      1.85794     -1.81057         2.633766     -0.796568      0.802003
Ni	      1.83747      3.69229     -1.83390        -2.869264     -0.262065     -0.048511
Ni	      3.69116      5.55020     -1.84790         1.842442      2.918585     -0.537785
Ni	      3.70241      3.71179     -3.66956         1.938339      3.277954     -4.734183
O	      1.93173      1.95783     -1.88097        -2.340121     -3.415455      1.000865
O	      3.70131      3.67870     -1.93206         2.769894     -0.302638      2.705810
O	      1.85018      3.64610     -3.56284        -2.254592      0.787323     -3.617080
O	      3.74638      1.71040      0.02350         0.769211     -0.061844      1.571560
O	      3.66204      0.10380     -1.70427         0.581690     -3.087921     -0.734989
O	      1.76979      3.69221     -0.11477        -0.076817      0.334409      4.200153
O	      3.66466      1.97611     -3.64472         0.536328     -2.938561     -2.096262
O	      1.89932      5.39860     -1.83080        -2.069371      3.884447     -0.361376
