# total energy = -92.44784224 eV
 
CRYSTAL
PRIMVEC
0.000006 2.061981 2.061992 
8.172167 2.134821 -2.134710 
0.007697 4.253623 -4.253499 
PRIMCOORD
16 1
Li	      2.04597      2.09243     -0.03316         0.001243      0.002859     -0.002048
Li	      6.13170      4.33421     -2.27397        -0.004721      0.006430     -0.007510
Li	      8.09184      6.26380     -2.14049         0.009262     -0.027492      0.027312
Li	      4.17662      4.25096     -4.25019        -0.009108     -0.006188      0.004776
Mn	      8.16512      4.22843     -0.10706         0.006873      0.037715     -0.036510
Mn	      4.09840      4.19569     -0.07442        -0.016868     -0.013038      0.014117
Ni	      2.05423      4.22382     -2.16432        -0.008210      0.003386     -0.002898
Ni	      6.13231      6.27159     -4.21171         0.004600     -0.005113      0.005545
O	      6.13491      6.34629     -2.22438         0.002254     -0.124083      0.124633
O	      8.17410      6.50273     -4.44320         0.005293      0.047855     -0.049535
O	      6.12925      4.11629      0.00509         0.001113      0.096673     -0.095726
O	      8.15401      4.10063     -2.04119         0.007791     -0.035506      0.034608
O	      2.17759      4.22938     -0.10793         0.057044     -0.103627      0.101888
O	      4.12230      4.09334     -2.03411         0.105839     -0.035989      0.036062
O	      1.92297      6.28735     -2.16592        -0.055427      0.107949     -0.106857
O	      4.07935      2.23671     -0.17747        -0.106978      0.048169     -0.047858
