# total energy = -75.81485938 eV
 
CRYSTAL
PRIMVEC
1.984189 3.974492 1.958129 
3.984222 -1.992976 -1.962532 
-0.003068 3.981453 -3.926915 
PRIMCOORD
16 1
Li	      0.01987      0.03239     -0.04176        -0.364059     -0.170312      0.072836
Li	      1.89214      1.93539      0.00768        -0.143881     -0.128535      0.386142
Li	      1.91872      0.02814     -1.84400        -0.180391     -0.376168      0.139202
Li	      1.93985      5.72404      0.00051        -0.048381      0.504580      0.365672
Ni	      3.87997      1.93699     -1.88760         1.303739     -0.391825      0.430059
Ni	      1.91565      3.84939     -1.91193        -1.413708     -0.137330     -0.049111
Ni	      3.84821      5.78635     -1.92653         0.832034      1.531528     -0.336708
Ni	      3.85994      3.86972     -3.82570         0.908238      1.668536     -2.441586
O	      2.01393      2.04113     -1.96100        -1.196969     -1.750879      0.599534
O	      3.85879      3.83522     -2.01427         1.429950     -0.174762      1.312821
O	      1.92890      3.80124     -3.71444        -1.155116      0.522902     -1.740812
O	      3.90579      1.78318      0.02450         0.404840     -0.086756      0.955367
O	      3.81785      0.10822     -1.77679         0.282261     -1.623682     -0.401762
O	      1.84509      3.84930     -0.11965        -0.001807      0.188760      2.079512
O	      3.82059      2.06019     -3.79980         0.217251     -1.497325     -1.223659
O	      1.98014      5.62830     -1.90870        -0.874001      1.921269     -0.147507
