# total energy = -76.32767984 eV
 
CRYSTAL
PRIMVEC
1.994417 3.994979 1.968223 
4.004759 -2.003249 -1.972648 
-0.003084 4.001976 -3.947156 
PRIMCOORD
16 1
Li	      0.02007      0.03272     -0.04218        -0.294026     -0.138740      0.058875
Li	      1.91170      1.95539      0.00776        -0.115221     -0.099952      0.306346
Li	      1.93856      0.02843     -1.86306        -0.142444     -0.297519      0.117452
Li	      1.95990      5.78320      0.00052        -0.038140      0.400295      0.301777
Ni	      3.92007      1.95701     -1.90711         1.029099     -0.309758      0.358821
Ni	      1.93545      3.88918     -1.93169        -1.123670     -0.110838     -0.045603
Ni	      3.88799      5.84616     -1.94644         0.652712      1.226141     -0.287526
Ni	      3.89983      3.90972     -3.86524         0.718067      1.332337     -1.966356
O	      2.03474      2.06223     -1.98127        -0.977877     -1.405814      0.504785
O	      3.89867      3.87487     -2.03509         1.161812     -0.132052      1.055062
O	      1.94884      3.84053     -3.75283        -0.937354      0.452677     -1.381642
O	      3.94615      1.80161      0.02476         0.325650     -0.064460      0.786894
O	      3.85731      0.10934     -1.79516         0.222462     -1.335396     -0.343873
O	      1.86416      3.88909     -0.12089         0.020822      0.153829      1.659527
O	      3.86008      2.08148     -3.83907         0.164563     -1.211540     -1.016151
O	      2.00060      5.68648     -1.92843        -0.666455      1.540790     -0.108387
