# total energy = -76.73824421 eV
 
CRYSTAL
PRIMVEC
2.004645 4.015466 1.978316 
4.025296 -2.013522 -1.982764 
-0.003100 4.022499 -3.967398 
PRIMCOORD
16 1
Li	      0.02028      0.03306     -0.04262        -0.226410     -0.105226      0.044200
Li	      1.93135      1.97550      0.00784        -0.087720     -0.073926      0.232299
Li	      1.95849      0.02872     -1.88221        -0.111445     -0.222724      0.094240
Li	      1.98005      5.84266      0.00053        -0.023216      0.301616      0.240663
Ni	      3.96038      1.97714     -1.92672         0.788812     -0.228342      0.285589
Ni	      1.95535      3.92917     -1.95156        -0.860926     -0.092470     -0.031768
Ni	      3.92797      5.90627     -1.96645         0.484830      0.938987     -0.232156
Ni	      3.93993      3.94992     -3.90498         0.551390      1.013264     -1.523708
O	      2.05566      2.08343     -2.00164        -0.767902     -1.090848      0.410614
O	      3.93876      3.91471     -2.05601         0.910000     -0.095388      0.825483
O	      1.96888      3.88002     -3.79142        -0.745082      0.382358     -1.058181
O	      3.98673      1.82013      0.02501         0.252498     -0.027998      0.622762
O	      3.89698      0.11046     -1.81361         0.170633     -1.059639     -0.299585
O	      1.88333      3.92908     -0.12213         0.042795      0.119155      1.279306
O	      3.89977      2.10288     -3.87855         0.113662     -0.949756     -0.812803
O	      2.02117      5.74495     -1.94826        -0.491918      1.190935     -0.076953
