# total energy = -77.28632525 eV
 
CRYSTAL
PRIMVEC
2.025100 4.056440 1.998503 
4.066371 -2.034068 -2.002997 
-0.003132 4.063544 -4.007882 
PRIMCOORD
16 1
Li	      0.02069      0.03374     -0.04349        -0.094728     -0.041335      0.012275
Li	      1.97097      2.01602      0.00800        -0.048072     -0.034800      0.102317
Li	      1.99866      0.02931     -1.92082        -0.059643     -0.089288      0.055192
Li	      2.02066      5.96251      0.00054        -0.002743      0.132498      0.128452
Ni	      4.04162      2.01769     -1.96625         0.356442     -0.094633      0.167770
Ni	      1.99546      4.00977     -1.99159        -0.415108     -0.062061     -0.012987
Ni	      4.00854      6.02742     -2.00679         0.212193      0.414276     -0.130673
Ni	      4.02075      4.03094     -3.98508         0.276831      0.444639     -0.724704
O	      2.09783      2.12617     -2.04270        -0.410010     -0.545702      0.235375
O	      4.01955      3.99501     -2.09818         0.476460     -0.039332      0.440262
O	      2.00926      3.95961     -3.86919        -0.402734      0.248910     -0.520944
O	      4.06851      1.85747      0.02552         0.116386      0.067238      0.312165
O	      3.97692      0.11273     -1.85082         0.074475     -0.560960     -0.234287
O	      1.92196      4.00968     -0.12464         0.094963      0.057231      0.637609
O	      3.97976      2.14602     -3.95811         0.037575     -0.505150     -0.437085
O	      2.06263      5.86279     -1.98822        -0.212288      0.608470     -0.030736
