# total energy = -77.43817868 eV
 
CRYSTAL
PRIMVEC
2.035328 4.076927 2.008596 
4.086908 -2.044341 -2.013113 
-0.003147 4.084067 -4.028124 
PRIMCOORD
16 1
Li	      0.02091      0.03408     -0.04393        -0.035358     -0.010639     -0.003038
Li	      1.99093      2.03644      0.00808        -0.026594     -0.021425      0.042069
Li	      2.01890      0.02961     -1.94028        -0.040467     -0.031370      0.036596
Li	      2.04113      6.02289      0.00054         0.003031      0.059452      0.077630
Ni	      4.08255      2.03812     -1.98616         0.167270     -0.033482      0.118759
Ni	      2.01567      4.05037     -2.01175        -0.231722     -0.053651     -0.006113
Ni	      4.04913      6.08846     -2.02711         0.101951      0.178295     -0.075020
Ni	      4.06147      4.07176     -4.02544         0.164810      0.191900     -0.368526
O	      2.11907      2.14770     -2.06339        -0.251408     -0.322938      0.155485
O	      4.06026      4.03546     -2.11943         0.290162     -0.019827      0.281006
O	      2.02961      3.99970     -3.90837        -0.251191      0.183817     -0.310730
O	      4.10971      1.87628      0.02578         0.055720      0.125374      0.168448
O	      4.01718      0.11387     -1.86956         0.033875     -0.327910     -0.217376
O	      1.94142      4.05028     -0.12591         0.114398      0.024000      0.380914
O	      4.02006      2.16775     -3.99819         0.003459     -0.311348     -0.264976
O	      2.08352      5.92216     -2.00836        -0.097935      0.369754     -0.015126
