# total energy = -77.53308636 eV
 
CRYSTAL
PRIMVEC
2.055784 4.117901 2.028783 
4.127983 -2.064887 -2.033345 
-0.003179 4.125113 -4.068607 
PRIMCOORD
16 1
Li	      0.02133      0.03477     -0.04482         0.087123      0.049048     -0.029866
Li	      2.03114      2.07757      0.00824         0.004986     -0.003026     -0.059711
Li	      2.05969      0.03020     -1.97947        -0.012192      0.076187      0.005609
Li	      2.08236      6.14456      0.00055         0.013711     -0.072365     -0.012907
Ni	      4.16502      2.07930     -2.02628        -0.166308      0.068599      0.030033
Ni	      2.05639      4.13220     -2.05240         0.076499     -0.040839      0.015390
Ni	      2.07514      2.09355     -4.09684        -0.081782     -0.249917      0.031763
Ni	      4.14352      4.15402     -4.10676        -0.015008     -0.262260      0.286190
O	      2.16188      2.19109     -2.10507         0.033856      0.046232     -0.004504
O	      4.14228      4.11699     -2.16225        -0.036612      0.003264      0.022569
O	      2.07061      4.08050     -3.98733         0.017523      0.062645      0.014386
O	      4.19273      1.91418      0.02630        -0.063326      0.251845     -0.105222
O	      4.09834      0.11617     -1.90733        -0.029948      0.086826     -0.210685
O	      1.98064      4.13210     -0.12845         0.147284     -0.037491     -0.034659
O	      4.10128      2.21155     -4.07896        -0.048904      0.026001      0.046678
O	      2.12561      6.04179     -2.04893         0.073098     -0.004749      0.004936
