# total energy = -89.37085118 eV
 
CRYSTAL
PRIMVEC
0.000235 2.091620 -2.091627 
0.000297 2.091616 2.091623 
16.988917 0.001872 0.000270 
PRIMCOORD
16 1
Li	      2.15203      2.09166     -0.00184         0.000919     -0.000223     -0.002046
Li	      6.44578      2.08995     -0.00186        -0.007061      0.001571      0.000740
Li	      8.59647      2.09241      2.09015        -0.027861      0.000004      0.001499
Li	     10.37803      2.09422     -0.00113        -0.046098     -0.000637     -0.000308
Mn	      0.20106      2.09260      2.08974         0.127719     -0.000429     -0.000422
Mn	      4.16747      2.09088      2.08968         0.151335      0.000333      0.000416
Ni	     12.60088      0.00392     -0.00102         0.131431     -0.001064     -0.000369
Ni	     14.91436      2.09522     -0.00135         0.074321      0.000861     -0.001552
O	     15.19224      0.00359     -0.00143         0.097145     -0.000371      0.000046
O	      0.08812      2.09268     -0.00187         0.043075      0.000151     -0.001024
O	     10.68071      0.00264     -0.00107        -0.184652     -0.000612     -0.000559
O	     12.93649      2.09551     -0.00107        -0.116856     -0.001790      0.000817
O	      5.96932      2.09035      2.08968        -0.121686      0.001622      0.001327
O	      8.39687      2.09214     -0.00142         0.016369      0.001333      0.000241
O	      2.09731      2.09176      2.08959        -0.126545     -0.000057      0.002127
O	      4.09096      2.09085     -0.00201        -0.011556     -0.000692     -0.000930
