# total energy = -77.48883802 eV
 
CRYSTAL
PRIMVEC
2.066012 4.138388 2.038877 
4.148520 -2.075160 -2.043461 
-0.003195 4.145636 -4.088849 
PRIMCOORD
16 1
Li	      0.02154      0.03511     -0.04527         0.144977      0.078430     -0.041851
Li	      2.05141      2.09830      0.00833         0.019032      0.003444     -0.103496
Li	      2.08023      0.03051     -1.99921        -0.002080      0.122709     -0.009317
Li	      0.03712      2.06746     -2.03832         0.022099     -0.127497     -0.048813
Ni	      4.20657      2.10004     -2.04649        -0.313249      0.117486     -0.007248
Ni	      2.07690      4.17342     -2.07287         0.202174     -0.036260      0.023919
Ni	      2.10612      2.13503     -4.12756        -0.154600     -0.437134      0.080163
Ni	      4.18485      4.19545     -4.14773        -0.089272     -0.462249      0.577439
O	      2.18345      2.21294     -2.12607         0.157448      0.189708     -0.075707
O	      4.18360      4.15805     -2.18382        -0.171134      0.001683     -0.080903
O	      2.09127      4.12121     -4.02710         0.132797      0.001342      0.132572
O	      4.23456      1.93328      0.02656        -0.117153      0.319198     -0.233583
O	      4.13922      0.11733     -1.92635        -0.058819      0.276565     -0.218485
O	      2.00040      4.17332     -0.12973         0.162716     -0.063440     -0.194195
O	      4.14219      2.23360     -4.11964        -0.069887      0.164965      0.190265
O	      2.14681      6.10207     -2.06937         0.134951     -0.148947      0.009239
