# total energy = -77.38985007 eV
 
CRYSTAL
PRIMVEC
2.076239 4.158875 2.048970 
4.169057 -2.085433 -2.053577 
-0.003211 4.166159 -4.109091 
PRIMCOORD
16 1
Li	      0.02175      0.03546     -0.04572         0.206249      0.107926     -0.054421
Li	      2.07177      2.11913      0.00841         0.030136      0.006989     -0.141797
Li	      2.10088      0.03081     -2.01906         0.004014      0.166220     -0.019959
Li	      0.04777      2.10857     -2.04841         0.030325     -0.178799     -0.086184
Ni	      4.24832      2.12089     -2.06680        -0.439783      0.158326     -0.046309
Ni	      2.09751      4.21484     -2.09344         0.311474     -0.031975      0.027452
Ni	      2.13731      2.17681     -4.15839        -0.221353     -0.608704      0.131154
Ni	      4.22638      4.23709     -4.18889        -0.146549     -0.651705      0.848943
O	      2.20512      2.23491     -2.14717         0.276385      0.314705     -0.143323
O	      4.22512      4.19932     -2.20549        -0.298699     -0.002827     -0.169188
O	      2.11202      4.16211     -4.06707         0.239900     -0.050710      0.226986
O	      4.27658      1.95246      0.02683        -0.169925      0.389305     -0.358002
O	      4.18030      0.11850     -1.94547        -0.085292      0.459183     -0.229711
O	      2.02025      4.21474     -0.13102         0.171728     -0.091763     -0.322795
O	      4.18330      2.25577     -4.16053        -0.087890      0.289497      0.330400
O	      2.16812      6.16263     -2.08991         0.179280     -0.275668      0.006755
