# total energy = -77.05029927 eV
 
CRYSTAL
PRIMVEC
2.096695 4.199849 2.069157 
4.210132 -2.105980 -2.073810 
-0.003242 4.207205 -4.149575 
PRIMCOORD
16 1
Li	      0.02218      0.03616     -0.04662         0.320627      0.158909     -0.080878
Li	      2.11279      2.16108      0.00858         0.049667     -0.003297     -0.211836
Li	      2.14248      0.03142     -2.05904         0.011584      0.246298     -0.033949
Li	      0.06937      2.19171     -2.06858         0.039674     -0.273020     -0.154876
Ni	      4.33244      2.16288     -2.10773        -0.661090      0.232739     -0.100089
Ni	      2.13905      4.29830     -2.13490         0.479409     -0.016597      0.033420
Ni	      2.20029      2.26129     -4.22035        -0.319673     -0.903233      0.228621
Ni	      4.31008      4.32099     -4.27184        -0.241427     -0.977837      1.322969
O	      2.24878      2.27916     -2.18969         0.490018      0.526917     -0.263549
O	      4.30879      4.28248     -2.24916        -0.512842     -0.018914     -0.310630
O	      2.15385      4.24453     -4.14760         0.431075     -0.159652      0.368546
O	      4.36127      1.99112      0.02736        -0.280856      0.535187     -0.579726
O	      4.26308      0.12084     -1.98400        -0.121693      0.777124     -0.274563
O	      2.06026      4.29820     -0.13361         0.185645     -0.146576     -0.524020
O	      4.26614      2.30044     -4.24292        -0.105101      0.499191      0.579096
O	      2.21105      6.28466     -2.13129         0.234985     -0.477238      0.001465
