# total energy = -76.81848749 eV
 
CRYSTAL
PRIMVEC
2.106923 4.220336 2.079251 
4.230669 -2.116253 -2.083926 
-0.003258 4.227728 -4.169816 
PRIMCOORD
16 1
Li	      0.02240      0.03652     -0.04708         0.379846      0.184138     -0.091093
Li	      2.13346      2.18222      0.00866         0.062292     -0.007142     -0.242316
Li	      2.16343      0.03172     -2.07918         0.013951      0.281205     -0.037366
Li	      0.08033      2.23373     -2.07867         0.047876     -0.309060     -0.183582
Ni	      4.37481      2.18403     -2.12834        -0.753712      0.266290     -0.124159
Ni	      2.15997      4.34033     -2.15578         0.539279     -0.010370      0.031809
Ni	      2.23208      2.30399     -4.25148        -0.358233     -1.031125      0.275718
Ni	      4.35223      4.36325     -4.31361        -0.276054     -1.116564      1.528763
O	      2.27077      2.30145     -2.21110         0.578842      0.611283     -0.317820
O	      4.35093      4.32436     -2.27116        -0.600861     -0.033545     -0.361498
O	      2.17491      4.28604     -4.18817         0.519922     -0.205173      0.421521
O	      4.40392      2.01060      0.02763        -0.335972      0.606079     -0.680961
O	      4.30477      0.12202     -2.00340        -0.137204      0.918279     -0.304301
O	      2.08041      4.34023     -0.13491         0.191193     -0.171499     -0.603271
O	      4.30786      2.32294     -4.28441        -0.112938      0.578297      0.695911
O	      2.23268      6.34612     -2.15213         0.241771     -0.561094     -0.007356
