# total energy = -76.54948429 eV
 
CRYSTAL
PRIMVEC
2.117150 4.240824 2.089344 
4.251206 -2.126526 -2.094042 
-0.003274 4.248251 -4.190058 
PRIMCOORD
16 1
Li	      0.02262      0.03687     -0.04754         0.438608      0.206851     -0.103828
Li	      2.15422      2.20346      0.00874         0.072281     -0.015904     -0.270885
Li	      2.18449      0.03203     -2.09941         0.013760      0.314582     -0.038631
Li	      0.09139      2.27605     -2.08875         0.057601     -0.341655     -0.209856
Ni	      4.41739      2.20529     -2.14906        -0.837304      0.294096     -0.145203
Ni	      2.18098      4.38258     -2.17676         0.588494     -0.009626      0.024983
Ni	      2.26408      2.34700     -4.28271        -0.391198     -1.137525      0.327530
Ni	      4.39458      4.40571     -4.35559        -0.303780     -1.239769      1.721646
O	      2.29288      2.32385     -2.23262         0.664875      0.684382     -0.373639
O	      4.39327      4.36644     -2.29326        -0.682978     -0.052844     -0.405564
O	      2.19607      4.32775     -4.22893         0.604375     -0.247715      0.454721
O	      4.44678      2.03016      0.02790        -0.394602      0.680588     -0.770875
O	      4.34667      0.12321     -2.02290        -0.151568      1.044904     -0.334057
O	      2.10065      4.38247     -0.13623         0.193990     -0.194125     -0.661788
O	      4.34978      2.34555     -4.32611        -0.111341      0.644593      0.808048
O	      2.25441      6.40788     -2.17308         0.238788     -0.630834     -0.022603
