# total energy = -76.24783042 eV
 
CRYSTAL
PRIMVEC
2.127378 4.261311 2.099438 
4.271743 -2.136799 -2.104158 
-0.003290 4.268774 -4.210300 
PRIMCOORD
16 1
Li	      0.02284      0.03723     -0.04800         0.493889      0.229078     -0.118588
Li	      2.17508      2.22480      0.00883         0.080032     -0.027124     -0.297749
Li	      2.20565      0.03235     -2.11974         0.014855      0.347072     -0.040633
Li	      0.10255      2.31868     -2.09884         0.063774     -0.373911     -0.232705
Ni	      4.46017      2.22665     -2.16987        -0.907199      0.318018     -0.164519
Ni	      2.20211      4.42503     -2.19784         0.625588     -0.003528      0.022513
Ni	      2.29629      2.39032     -4.31405        -0.414049     -1.228457      0.372363
Ni	      4.43715      4.44838     -4.39778        -0.325480     -1.344711      1.885754
O	      2.31508      2.34635     -2.25424         0.739542      0.745319     -0.418763
O	      4.43582      4.40873     -2.31547        -0.752870     -0.076421     -0.436443
O	      2.21734      4.36967     -4.26989         0.682234     -0.289023      0.482978
O	      4.48985      2.04983      0.02817        -0.451265      0.757387     -0.849944
O	      4.38876      0.12440     -2.04249        -0.158700      1.159710     -0.373926
O	      2.12100      4.42492     -0.13755         0.188243     -0.218511     -0.703371
O	      4.39191      2.36826     -4.36801        -0.106037      0.700367      0.912190
O	      2.27624      6.46995     -2.19413         0.227443     -0.695263     -0.039156
