# total energy = -75.91759889 eV
 
CRYSTAL
PRIMVEC
2.137606 4.281798 2.109531 
4.292280 -2.147072 -2.114274 
-0.003306 4.289297 -4.230542 
PRIMCOORD
16 1
Li	      0.02306      0.03759     -0.04846         0.551078      0.252823     -0.134974
Li	      2.19605      2.24625      0.00891         0.085254     -0.040821     -0.320917
Li	      2.22691      0.03266     -2.14018         0.014880      0.378353     -0.035718
Li	      0.11382      2.36161     -2.10893         0.072761     -0.399049     -0.255584
Ni	      4.50316      2.24811     -2.19078        -0.965809      0.337994     -0.181224
Ni	      2.22333      4.46767     -2.21902         0.654430      0.009144      0.015415
Ni	      2.32869      2.43395     -4.34549        -0.433705     -1.314515      0.419279
Ni	      4.47991      4.49126     -4.44017        -0.338742     -1.440520      2.028096
O	      2.33740      2.36897     -2.27597         0.804367      0.795953     -0.465002
O	      4.47858      4.45123     -2.33779        -0.813539     -0.102942     -0.454043
O	      2.23872      4.41179     -4.31105         0.753914     -0.326638      0.499652
O	      4.53312      2.06958      0.02844        -0.512112      0.832362     -0.916864
O	      4.43107      0.12560     -2.06217        -0.162599      1.262205     -0.415170
O	      2.14144      4.46757     -0.13887         0.180812     -0.238466     -0.738115
O	      4.43424      2.39109     -4.41011        -0.102568      0.747180      1.016152
O	      2.29818      6.53231     -2.21527         0.211578     -0.753064     -0.060983
