# total energy = -75.56131534 eV
 
CRYSTAL
PRIMVEC
2.147834 4.302285 2.119624 
4.312818 -2.157345 -2.124390 
-0.003321 4.309820 -4.250784 
PRIMCOORD
16 1
Li	      0.02328      0.03795     -0.04893         0.612118      0.274710     -0.152309
Li	      2.21711      2.26779      0.00900         0.094838     -0.058973     -0.342813
Li	      2.24827      0.03297     -2.16071         0.016051      0.406792     -0.029473
Li	      0.12518      2.40485     -2.11902         0.080609     -0.420116     -0.274027
Ni	      4.54636      2.26967     -2.21180        -1.020293      0.362139     -0.201108
Ni	      2.24466      4.51053     -2.24031         0.667084      0.015046      0.013886
Ni	      2.36131      2.47788     -4.37703        -0.443759     -1.380525      0.461063
Ni	      4.52288      4.53434     -4.48276        -0.351773     -1.514753      2.151128
O	      2.35982      2.39170     -2.29780         0.864403      0.841983     -0.512503
O	      4.52154      4.49392     -2.36022        -0.855456     -0.133636     -0.466839
O	      2.26019      4.45410     -4.35239         0.828600     -0.361434      0.511374
O	      4.57661      2.08944      0.02871        -0.580890      0.903188     -0.966621
O	      4.47357      0.12681     -2.08196        -0.160591      1.353355     -0.458235
O	      2.16198      4.51042     -0.14021         0.163867     -0.257366     -0.763784
O	      4.47678      2.41403     -4.45241        -0.102497      0.777342      1.116239
O	      2.32022      6.59497     -2.23652         0.187690     -0.807751     -0.085977
