# total energy = -72.58389116 eV
 
CRYSTAL
PRIMVEC
-1.900840 3.923219 -1.900813 
1.936906 3.956366 1.937198 
1.922777 -0.016745 -5.760880 
PRIMCOORD
16 1
Li	     -1.77659      3.72627     -1.83386        -0.738273      0.088733      0.140838
Li	      0.03250      5.60537     -1.80267        -0.259283      0.517205      0.300039
Li	      0.01371      3.72599     -3.62431        -1.130748      0.211466     -0.032530
Li	      1.82310      5.60560     -3.59325         0.270500      0.579000      0.106450
Ni	      1.82793      3.72616     -5.43831         1.634571      0.647048     -4.118684
Ni	      0.00420      1.86259     -1.80926        -3.102417     -2.756779      2.636665
Ni	      1.84826      3.74158     -1.81249         2.490438      2.337666      0.584322
Ni	      1.85120      1.86231     -3.65576         2.832841     -4.922412     -0.609469
O	      1.83101      1.92503     -1.93216         2.272080     -2.349816      3.109088
O	      0.02124      3.67890     -1.68906        -2.408396      2.470521      0.073919
O	      0.12741      1.79991     -3.63630        -3.068872     -0.381913     -2.365066
O	      1.82366      2.02215     -5.40503         0.408022     -4.093856     -2.520684
O	      1.72510      3.80490      0.01453         1.474213     -0.320418      2.942209
O	      0.07832      3.88563     -5.46641        -2.872889      0.201837     -1.099434
O	      1.79475      5.42993     -5.43378         1.000905      4.468653     -0.928534
O	      1.85589      3.56638     -3.68893         1.197308      3.303066      1.780872
