# total energy = -92.54231230 eV
 
CRYSTAL
PRIMVEC
-2.021633 4.256837 -2.021678 
2.054630 4.289127 2.055260 
2.023861 -0.016669 -6.101138 
PRIMCOORD
16 1
Li	      0.03692      6.39995     -2.02642         0.016440      0.004710     -0.018378
Li	      2.03368      6.39623     -4.02270        -0.020106      0.009068      0.019960
Li	      0.03726      4.27552      0.00182         0.002383     -0.004207     -0.019336
Li	      2.03036      4.27976     -2.00385        -0.000456     -0.001957      0.017127
Mn	      4.05247      4.27095     -4.01777         0.001243      0.003534     -0.001771
Mn	      0.03791      4.25386     -4.08386         0.001318      0.005660      0.004192
Ni	     -0.01089      2.12728     -2.01040        -0.025908     -0.002104      0.035838
Ni	      2.05520      2.12694     -4.07707         0.030309      0.002646     -0.036454
O	      0.01030      4.30513     -6.09233        -0.000811     -0.121923     -0.002448
O	      0.03736      2.32134     -4.03666        -0.095383      0.030386     -0.105539
O	      2.04789      4.20661     -4.05381         0.004820      0.117271      0.002579
O	      2.11811      4.31953      0.09081         0.027342     -0.106462      0.050873
O	     -0.00749      6.18545     -4.08356         0.098490     -0.026321      0.111215
O	      2.04823      6.60535     -6.05976         0.001641      0.017748     -0.015097
O	     -0.05821      4.22292     -2.08350        -0.035506      0.106172     -0.046320
O	      2.02049      1.90532     -6.09186        -0.005816     -0.034221      0.003560
