# total energy = -74.51326205 eV
 
CRYSTAL
PRIMVEC
-1.920849 3.964516 -1.920822 
1.957295 3.998012 1.957590 
1.943017 -0.016922 -5.821521 
PRIMCOORD
16 1
Li	     -1.81419      3.80513     -1.87267        -0.521793      0.065781      0.112608
Li	      0.03319      5.72400     -1.84082        -0.189214      0.363223      0.225646
Li	      0.01400      3.80485     -3.70101        -0.834600      0.131645     -0.025058
Li	      1.86168      5.72423     -3.66930         0.194997      0.426449      0.054931
Ni	      1.86662      3.80501     -5.55340         1.119477      0.470802     -3.078521
Ni	      0.00429      1.90201     -1.84755        -2.250626     -1.980275      1.899409
Ni	      1.88737      3.82076     -1.85085         1.806142      1.667332      0.423100
Ni	      1.89039      1.90172     -3.73313         2.015699     -3.608095     -0.434309
O	      1.86976      1.96577     -1.97305         1.666650     -1.755608      2.170927
O	      0.02169      3.75675     -1.72480        -1.855076      1.820646      0.122938
O	      0.13010      1.83800     -3.71326        -2.188088     -0.209758     -1.740169
O	      1.86225      2.06495     -5.51942         0.314329     -2.966630     -1.730839
O	      1.76161      3.88542      0.01484         1.112203     -0.273806      2.317126
O	      0.07998      3.96786     -5.58210        -2.004720      0.154995     -0.819125
O	      1.83273      5.54484     -5.54877         0.719308      3.267755     -0.681645
O	      1.89517      3.64185     -3.76700         0.895311      2.425544      1.182980
