# total energy = -75.27208775 eV
 
CRYSTAL
PRIMVEC
-1.930854 3.985165 -1.930826 
1.967489 4.018835 1.967786 
1.953137 -0.017010 -5.851841 
PRIMCOORD
16 1
Li	     -1.83313      3.84487     -1.89223        -0.429681      0.056320      0.100203
Li	      0.03353      5.78378     -1.86004        -0.156921      0.306420      0.192166
Li	      0.01414      3.84458     -3.73966        -0.699354      0.095361     -0.018701
Li	      1.88113      5.78401     -3.70762         0.162991      0.362163      0.035665
Ni	      1.88611      3.84475     -5.61140         0.901589      0.388579     -2.605671
Ni	      0.00434      1.92188     -1.86685        -1.878438     -1.641597      1.579815
Ni	      1.90708      3.86067     -1.87018         1.507598      1.376600      0.354752
Ni	      1.91013      1.92158     -3.77211         1.665770     -3.018430     -0.364159
O	      1.88929      1.98630     -1.99365         1.401463     -1.488456      1.775801
O	      0.02192      3.79599     -1.74281        -1.595320      1.536333      0.125080
O	      0.13146      1.85720     -3.75203        -1.812827     -0.144923     -1.466444
O	      1.88170      2.08651     -5.57706         0.270143     -2.480418     -1.398803
O	      1.78000      3.92600      0.01499         0.947329     -0.252299      2.004247
O	      0.08082      4.00930     -5.64040        -1.639014      0.124961     -0.696670
O	      1.85187      5.60275     -5.60672         0.598122      2.738463     -0.571957
O	      1.91496      3.67989     -3.80635         0.756550      2.040923      0.954678
