# total energy = -76.43245811 eV
 
CRYSTAL
PRIMVEC
-1.950862 4.026462 -1.950835 
1.987877 4.060481 1.988177 
1.973377 -0.017186 -5.912482 
PRIMCOORD
16 1
Li	     -1.87132      3.92496     -1.93165        -0.271562      0.037791      0.072962
Li	      0.03423      5.90427     -1.89879        -0.099671      0.191708      0.130310
Li	      0.01444      3.92468     -3.81757        -0.460612      0.048298     -0.017090
Li	      1.92032      5.90451     -3.78486         0.113356      0.236793      0.012217
Ni	      1.92541      3.92485     -5.72830         0.535744      0.256213     -1.745130
Ni	      0.00443      1.96191     -1.90573        -1.227942     -1.048531      1.028087
Ni	      1.94681      3.94110     -1.90914         0.985719      0.872936      0.221523
Ni	      1.94992      1.96161     -3.85070         1.067701     -1.970263     -0.248370
O	      1.92865      2.02769     -2.03519         0.927895     -0.999753      1.136187
O	      0.02238      3.87507     -1.77912        -1.103471      1.020667      0.093892
O	      0.13420      1.89589     -3.83020        -1.194152     -0.041899     -0.981190
O	      1.92090      2.12998     -5.69325         0.185540     -1.634979     -0.862013
O	      1.81709      4.00779      0.01531         0.661483     -0.205839      1.399989
O	      0.08250      4.09282     -5.75790        -1.022979      0.052874     -0.472354
O	      1.89045      5.71947     -5.72352         0.394949      1.812060     -0.371533
O	      1.95485      3.75655     -3.88564         0.508002      1.371922      0.602513
