# total energy = -76.85148707 eV
 
CRYSTAL
PRIMVEC
-1.960867 4.047110 -1.960839 
1.998072 4.081304 1.998373 
1.983496 -0.017274 -5.942803 
PRIMCOORD
16 1
Li	     -1.89056      3.96532     -1.95151        -0.201207      0.030456      0.059906
Li	      0.03458      5.96498     -1.91832        -0.072930      0.145623      0.098339
Li	      0.01459      3.96503     -3.85682        -0.357643      0.031926     -0.011136
Li	      1.94006      5.96523     -3.82378         0.086890      0.182289      0.008444
Ni	      1.94520      3.96521     -5.78720         0.380316      0.194687     -1.345286
Ni	      0.00447      1.98209     -1.92533        -0.949344     -0.791458      0.794420
Ni	      1.96683      3.98162     -1.92877         0.763733      0.657853      0.156073
Ni	      1.96997      1.98178     -3.89030         0.816836     -1.508310     -0.204515
O	      1.94848      2.04853     -2.05612         0.724920     -0.780705      0.883361
O	      0.02261      3.91491     -1.79741        -0.877827      0.792576      0.055222
O	      0.13558      1.91539     -3.86958        -0.945223     -0.008468     -0.765903
O	      1.94066      2.15188     -5.75179         0.142205     -1.278554     -0.655312
O	      1.83577      4.04901      0.01546         0.542027     -0.178480      1.112375
O	      0.08335      4.13491     -5.81711        -0.774091      0.010172     -0.368457
O	      1.90989      5.77828     -5.78238         0.322492      1.414157     -0.288529
O	      1.97495      3.79518     -3.92560         0.398847      1.086235      0.470999
