# total energy = -77.17552745 eV
 
CRYSTAL
PRIMVEC
-1.970871 4.067759 -1.970843 
2.008266 4.102127 2.008569 
1.993616 -0.017362 -5.973123 
PRIMCOORD
16 1
Li	     -1.90991      4.00589     -1.97148        -0.140881      0.021811      0.048608
Li	      0.03494      6.02600     -1.93794        -0.049748      0.102843      0.071146
Li	      0.01474      4.00560     -3.89628        -0.255363      0.015138     -0.007643
Li	      1.95991      6.02625     -3.86289         0.061541      0.131734      0.003846
Ni	      1.96510      4.00577     -5.84641         0.245216      0.140396     -0.968373
Ni	      0.00452      2.00237     -1.94503        -0.697572     -0.559580      0.587317
Ni	      1.98695      4.02235     -1.94850         0.559795      0.463761      0.097613
Ni	      1.99012      2.00205     -3.93009         0.595719     -1.076890     -0.169650
O	      1.96841      2.06949     -2.07715         0.536210     -0.577700      0.670791
O	      0.02284      3.95496     -1.81580        -0.660400      0.582748      0.000781
O	      0.13697      1.93498     -3.90917        -0.728509      0.014803     -0.567431
O	      1.96051      2.17390     -5.81063         0.102749     -0.957329     -0.488759
O	      1.85455      4.09043      0.01562         0.440936     -0.151036      0.829411
O	      0.08420      4.17721     -5.87662        -0.565955     -0.038581     -0.269797
O	      1.92943      5.83740     -5.84154         0.263230      1.055096     -0.202058
O	      1.99516      3.83400     -3.96575         0.293034      0.832787      0.364197
