# total energy = -77.41210375 eV
 
CRYSTAL
PRIMVEC
-1.980876 4.088407 -1.980848 
2.018460 4.122950 2.018765 
2.003736 -0.017450 -6.003444 
PRIMCOORD
16 1
Li	     -1.92934      4.04666     -1.99155        -0.086522      0.016328      0.031374
Li	      0.03530      6.08733     -1.95766        -0.025278      0.060914      0.042195
Li	      0.01489      4.04636     -3.93594        -0.164313      0.008113     -0.002618
Li	      1.97986      6.08759     -3.90221         0.038486      0.083620      0.001989
Ni	      1.98510      4.04654     -5.90591         0.124408      0.088793     -0.601859
Ni	      0.00457      2.02274     -1.96482        -0.470977     -0.353085      0.403883
Ni	      2.00717      4.06330     -1.96833         0.381348      0.291657      0.035461
Ni	      2.01038      2.02243     -3.97009         0.398598     -0.687812     -0.134896
O	      1.98845      2.09055     -2.09829         0.365973     -0.387180      0.498486
O	      0.02307      3.99522     -1.83428        -0.453647      0.388311     -0.068495
O	      0.13836      1.95467     -3.94896        -0.545409      0.033638     -0.389949
O	      1.98046      2.19602     -5.86977         0.061479     -0.677529     -0.351846
O	      1.87343      4.13206      0.01578         0.357205     -0.118371      0.565030
O	      0.08506      4.21973     -5.93643        -0.389975     -0.092780     -0.179416
O	      1.94907      5.89681     -5.90099         0.215599      0.740809     -0.126213
O	      2.01546      3.87302     -4.00612         0.193025      0.604575      0.276874
