# total energy = -77.57158258 eV
 
CRYSTAL
PRIMVEC
-1.990880 4.109056 -1.990852 
2.028654 4.143773 2.028961 
2.013856 -0.017539 -6.033764 
PRIMCOORD
16 1
Li	     -1.94888      4.08764     -2.01171        -0.038523      0.008416      0.015312
Li	      0.03565      6.14898     -1.97749        -0.003906      0.030476      0.013362
Li	      0.01504      4.08734     -3.97579        -0.084562      0.002424      0.004576
Li	      1.99991      6.14923     -3.94173         0.015562      0.041060      0.003338
Ni	      2.00521      4.08752     -5.96571         0.014443      0.037665     -0.253866
Ni	      0.00461      2.04323     -1.98472        -0.264036     -0.165374      0.236323
Ni	      2.02750      4.10444     -1.98827         0.220339      0.135503     -0.026135
Ni	      2.03074      2.04291     -4.01030         0.228406     -0.325386     -0.108788
O	      2.00858      2.11173     -2.11954         0.211618     -0.211635      0.355219
O	      0.02330      4.03568     -1.85286        -0.259124      0.210110     -0.145719
O	      0.13976      1.97447     -3.98895        -0.378839      0.040862     -0.226763
O	      2.00052      2.21826     -5.92921         0.025803     -0.430381     -0.239634
O	      1.89240      4.17390      0.01594         0.289128     -0.082500      0.314532
O	      0.08592      4.26246     -5.99654        -0.248424     -0.149892     -0.091571
O	      1.96881      5.95652     -5.96075         0.176525      0.459713     -0.053806
O	      2.03587      3.91225     -4.04669         0.095591      0.398940      0.203619
