# total energy = -77.67987760 eV
 
CRYSTAL
PRIMVEC
-2.010889 4.150353 -2.010861 
2.049043 4.185419 2.049352 
2.034096 -0.017715 -6.094405 
PRIMCOORD
16 1
Li	      0.02264      0.01986     -0.04149         0.044445     -0.006786     -0.024215
Li	      0.03637      6.27320     -2.01744         0.030222     -0.027431     -0.041009
Li	      0.01534      4.16991     -4.05611         0.053945     -0.000187      0.020222
Li	      2.04031      6.27345     -4.02136        -0.024830     -0.037146      0.006599
Ni	      0.01162      4.18781      0.00817        -0.162644     -0.046397      0.400040
Ni	      0.00470      2.08451     -2.02482         0.076494      0.148656     -0.043735
Ni	      2.06846      4.18736     -2.02843        -0.041216     -0.114651     -0.143397
Ni	      2.07176      2.08418     -4.09131        -0.047369      0.308540     -0.059279
O	      2.04916      2.15438     -2.16236        -0.041987      0.100113      0.135673
O	      0.02378      4.11720     -1.89029         0.096018     -0.093710     -0.341965
O	      0.14259      2.01436     -4.06953        -0.108231      0.047803      0.062953
O	      2.04093      2.26308     -6.04899        -0.051108     -0.031541     -0.063689
O	      1.93063      4.25822      0.01626         0.196058     -0.016881     -0.148299
O	      0.08766      4.34857     -6.11769        -0.055465     -0.283696      0.074117
O	      2.00858      6.07685     -6.08117         0.112220      0.004217      0.075740
O	      2.07700      3.99128     -4.12844        -0.076552      0.049098      0.090243
