# total energy = -77.55252087 eV
 
CRYSTAL
PRIMVEC
-2.030898 4.191650 -2.030869 
2.069431 4.227065 2.069744 
2.054336 -0.017891 -6.155046 
PRIMCOORD
16 1
Li	      0.00288      0.06197     -0.06253         0.115372     -0.017386     -0.069989
Li	      0.03710      6.39866     -2.05778         0.056224     -0.069971     -0.096985
Li	      0.01565      4.25330     -4.13723         0.158489      0.014498      0.043364
Li	      2.08112      6.39892     -4.10178        -0.052328     -0.101183      0.006845
Ni	      0.03229      4.27139     -0.05291        -0.290370     -0.122046      1.016357
Ni	      0.00480      2.12619     -2.06531         0.340058      0.379655     -0.250341
Ni	      2.10983      4.27110     -2.06900        -0.241001     -0.304800     -0.254039
Ni	      2.11319      2.12586     -4.17313        -0.265666      0.833621     -0.009821
O	      2.09014      2.19747     -2.20560        -0.239061      0.359331     -0.033125
O	      0.02425      4.19954     -1.92809         0.408475     -0.341575     -0.582639
O	      0.14544      2.05464     -4.15092         0.105778      0.044376      0.288268
O	      0.02741      2.32622     -0.01492        -0.118501      0.267333      0.073602
O	      1.96924      4.34338      0.01659         0.142728      0.043681     -0.561182
O	      0.08941      4.43554     -6.24004         0.048228     -0.423748      0.225896
O	     -0.00559      6.21628     -0.04774         0.065640     -0.332105      0.193584
O	      2.11854      4.07110     -4.21100        -0.234064     -0.229679      0.010204
