# total energy = -76.74033842 eV
 
CRYSTAL
PRIMVEC
-2.070915 4.274244 -2.070886 
2.110208 4.310357 2.110527 
2.094815 -0.018244 -6.276327 
PRIMCOORD
16 1
Li	     -0.03781      0.14866     -0.10582         0.238470     -0.039323     -0.186616
Li	      0.03858      6.65331     -2.13968         0.083802     -0.123196     -0.197573
Li	      0.01627      4.42258     -4.30188         0.289810      0.058349      0.096341
Li	      2.16394      6.65358     -4.26502        -0.083799     -0.189232      0.020092
Ni	      0.07486      4.44101     -0.17869        -0.426630     -0.227287      2.139494
Ni	      0.00499      2.21081     -2.14751         0.648806      0.656360     -0.537171
Ni	      2.19380      4.44108     -2.15134        -0.469663     -0.523121     -0.448442
Ni	      2.19729      2.21047     -4.33921        -0.506632      1.602214      0.069922
O	      2.17332      2.28492     -2.29338        -0.483592      0.738755     -0.277859
O	      0.02521      4.36667     -2.00483         0.884700     -0.672902     -1.178080
O	      0.15123      2.13641     -4.31612         0.418120      0.018309      0.605087
O	      0.06978      2.41844     -0.13919        -0.255153      0.663984      0.306430
O	      2.04761      4.51624      0.01725         0.098458      0.146008     -1.224653
O	      0.09297      4.61205     -6.48837         0.085160     -0.702699      0.512717
O	      0.03547      6.46331     -0.17331        -0.014530     -0.775053      0.406164
O	      2.20285      4.23312     -4.37859        -0.507328     -0.631165     -0.105853
