# total energy = -76.44481985 eV
 
CRYSTAL
PRIMVEC
-2.080920 4.294893 -2.080891 
2.120402 4.331180 2.120723 
2.104935 -0.018332 -6.306648 
PRIMCOORD
16 1
Li	     -0.04823      0.17085     -0.11690         0.270176     -0.047155     -0.220401
Li	      0.03895      6.71775     -2.16040         0.088181     -0.135060     -0.223692
Li	      0.01643      4.46541     -4.34354         0.308655      0.069917      0.112255
Li	      2.18489      6.71802     -4.30633        -0.090949     -0.206093      0.018325
Ni	      0.08575      4.48394     -0.21088        -0.442198     -0.237116      2.408533
Ni	      0.00504      2.23222     -2.16831         0.690494      0.695162     -0.589297
Ni	      2.21504      4.48410     -2.17218        -0.497709     -0.548807     -0.490548
Ni	      2.21858      2.23188     -4.38124        -0.532331      1.735073      0.090143
O	      2.19437      2.30705     -2.31559        -0.519328      0.803633     -0.325690
O	      0.02546      4.40896     -2.02424         0.970024     -0.731902     -1.350455
O	      0.15269      2.15710     -4.35791         0.470870      0.018161      0.664278
O	      0.08063      2.44178     -0.17100        -0.281423      0.738094      0.359502
O	      2.06744      4.55998      0.01742         0.084434      0.169087     -1.363261
O	      0.09387      4.65673     -6.55121         0.077501     -0.771897      0.582932
O	      0.04598      6.52582     -0.20546        -0.026505     -0.851721      0.457159
O	      2.22419      4.27412     -4.42100        -0.569891     -0.699375     -0.129784
