# total energy = -75.76304826 eV
 
CRYSTAL
PRIMVEC
-2.100929 4.336190 -2.100899 
2.140791 4.372826 2.141114 
2.125175 -0.018508 -6.367289 
PRIMCOORD
16 1
Li	     -0.06936      0.21584     -0.13936         0.338145     -0.053490     -0.283768
Li	      0.03970      6.84755     -2.20214         0.091322     -0.144990     -0.278438
Li	      0.01675      4.55170     -4.42747         0.333897      0.098886      0.143637
Li	      2.22711      6.84783     -4.38954        -0.092611     -0.234070      0.024004
Ni	      0.10784      4.57041     -0.27618        -0.446678     -0.261646      2.948238
Ni	      0.00514      2.27536     -2.21020         0.728194      0.743640     -0.681419
Ni	      2.25784      4.57074     -2.21415        -0.517529     -0.577459     -0.573586
Ni	      2.26145      2.27500     -4.46590        -0.564263      1.953914      0.126155
O	      2.23677      2.35163     -2.36034        -0.572362      0.899852     -0.416168
O	      0.02595      4.49416     -2.06336         1.097533     -0.828684     -1.732394
O	      0.15564      2.19878     -4.44212         0.557737      0.023909      0.756318
O	      0.10262      2.48878     -0.23553        -0.327117      0.863282      0.466091
O	      2.10739      4.64809      0.01775         0.057644      0.208122     -1.612838
O	      0.09568      4.74671     -6.67780         0.055291     -0.900430      0.728670
O	      0.06730      6.65174     -0.27065        -0.048213     -0.977029      0.563725
O	      2.26716      4.35671     -4.50642        -0.690988     -0.813805     -0.178228
