# total energy = -73.50591894 eV
 
CRYSTAL
PRIMVEC
-1.961046 3.893514 -1.961145 
1.925278 3.857159 1.925457 
1.969572 0.018122 -5.856334 
PRIMCOORD
16 1
Li	      3.71156      3.69921     -3.74420         0.755401      0.087374     -0.143955
Li	     -0.05743      5.55957     -1.84921        -0.568849      0.398072      0.329420
Li	     -0.02241      3.71572     -3.72194        -0.846832      0.043534     -0.589361
Li	      0.03362      3.69940     -0.06657        -0.709060      0.033516      0.787954
Ni	      1.86182      5.55816     -3.76783         0.270550      2.115860      0.143067
Ni	     -0.00489      1.85726     -1.86684        -2.415095     -3.613617      1.275797
Ni	      1.84495      3.69917     -1.87792         3.486398      0.492684      2.012548
Ni	      1.90741      1.85737     -3.77918         0.785644     -2.141686     -0.834574
O	      1.85939      1.99305     -1.91113         0.695735     -3.710395      1.300128
O	      0.12189      3.59832     -1.89171        -3.338780      2.839313     -0.187427
O	      1.87830      5.40558     -1.89214        -0.817155      3.618525      0.066527
O	      1.83134      1.86859     -5.62046         1.071071     -0.878888     -1.633979
O	      1.85857      3.79972     -0.15487         0.518295     -0.317749      3.884641
O	     -0.14104      3.73112     -5.57733        -0.142121     -0.096966     -1.490874
O	      1.87525      5.56437     -5.57618         0.865623      0.966479     -1.916248
O	      1.83268      3.70190     -3.60332         0.389175      0.163943     -3.003664
