# total energy = -75.12753478 eV
 
CRYSTAL
PRIMVEC
-1.981581 3.934284 -1.981681 
1.945438 3.897548 1.945619 
1.990195 0.018311 -5.917657 
PRIMCOORD
16 1
Li	      3.78969      3.77708     -3.82302         0.528690      0.067737     -0.101190
Li	     -0.05864      5.67661     -1.88814        -0.408287      0.270934      0.255671
Li	     -0.02288      3.79394     -3.80030        -0.595724      0.028604     -0.437128
Li	      0.03432      3.77728     -0.06797        -0.505786      0.016023      0.568725
Ni	      1.90101      5.67517     -3.84715         0.187233      1.493497      0.118846
Ni	     -0.00499      1.89636     -1.90614        -1.695955     -2.545446      0.968080
Ni	      1.88379      3.77704     -1.91745         2.451278      0.360446      1.462868
Ni	      1.94757      1.89647     -3.85874         0.588329     -1.503722     -0.652198
O	      1.89853      2.03501     -1.95137         0.391502     -2.645912      0.923744
O	      0.12445      3.67407     -1.93153        -2.381464      2.017174     -0.149199
O	      1.91784      5.51937     -1.93197        -0.662527      2.583786     -0.025952
O	      1.86990      1.90793     -5.73878         0.850577     -0.657268     -1.119930
O	      1.89770      3.87972     -0.15813         0.374721     -0.248960      2.779627
O	     -0.14401      3.80967     -5.69474        -0.092072     -0.071812     -1.093142
O	      1.91472      5.68152     -5.69357         0.666156      0.725712     -1.391532
O	      1.87126      3.77983     -3.67918         0.303329      0.109207     -2.107290
