# total energy = -75.75445255 eV
 
CRYSTAL
PRIMVEC
-1.991848 3.954668 -1.991949 
1.955518 3.917742 1.955700 
2.000507 0.018406 -5.948319 
PRIMCOORD
16 1
Li	      3.82907      3.81632     -3.86275         0.432692      0.058854     -0.086092
Li	     -0.05925      5.73558     -1.90776        -0.333514      0.214301      0.220318
Li	     -0.02312      3.83336     -3.83978        -0.490486      0.021904     -0.363588
Li	      0.03468      3.81652     -0.06868        -0.418045      0.012938      0.462968
Ni	      1.92077      5.73413     -3.88712         0.158453      1.216885      0.106193
Ni	     -0.00504      1.91606     -1.92595        -1.385065     -2.077120      0.818525
Ni	      1.90336      3.81628     -1.93738         1.997444      0.297522      1.215730
Ni	      1.96780      1.91617     -3.89883         0.494861     -1.225785     -0.561568
O	      1.91826      2.05615     -1.97164         0.283197     -2.179155      0.757134
O	      0.12575      3.71224     -1.95160        -1.962197      1.666005     -0.126787
O	      1.93777      5.57672     -1.95205        -0.580993      2.130781     -0.051437
O	      1.88932      1.92775     -5.79841         0.741773     -0.553460     -0.897856
O	      1.91741      3.92002     -0.15977         0.308047     -0.225655      2.291980
O	     -0.14551      3.84925     -5.75391        -0.073881     -0.057807     -0.909895
O	      1.93461      5.74054     -5.75272         0.565306      0.611973     -1.158467
O	      1.89070      3.81910     -3.71740         0.262407      0.087817     -1.717157
