# total energy = -76.68698467 eV
 
CRYSTAL
PRIMVEC
-2.012382 3.995438 -2.012484 
1.975678 3.958132 1.975862 
2.021131 0.018596 -6.009641 
PRIMCOORD
16 1
Li	      3.90842      3.89542     -3.94280         0.263734      0.041094     -0.057086
Li	     -0.06047      5.85445     -1.94730        -0.205887      0.121066      0.151131
Li	     -0.02359      3.91280     -3.91936        -0.297745      0.015194     -0.230611
Li	      0.03540      3.89562     -0.07011        -0.258734      0.008966      0.288499
Ni	      1.96057      5.85297     -3.96768         0.081086      0.734319      0.084148
Ni	     -0.00515      1.95577     -1.96586        -0.841822     -1.261120      0.534500
Ni	      1.94281      3.89537     -1.97753         1.193225      0.186055      0.760405
Ni	      2.00858      1.95589     -3.97963         0.327127     -0.740199     -0.385271
O	      1.95801      2.09877     -2.01250         0.137936     -1.356440      0.478600
O	      0.12835      3.78918     -1.99205        -1.221712      1.063664     -0.084267
O	      1.97793      5.69230     -1.99250        -0.412090      1.332773     -0.063505
O	      1.92848      1.96770     -5.91858         0.532514     -0.356926     -0.529230
O	      1.95715      4.00126     -0.16308         0.191006     -0.194432      1.428643
O	     -0.14852      3.92902     -5.87316        -0.024094     -0.035279     -0.578658
O	      1.97471      5.85952     -5.87195         0.362452      0.389485     -0.754689
O	      1.92989      3.89825     -3.79445         0.173004      0.051780     -1.042610
