# total energy = -90.42297674 eV
 
CRYSTAL
PRIMVEC
-0.000061 2.084565 2.084554 
8.413450 2.092137 -2.092321 
0.001009 4.182591 -4.182575 
PRIMCOORD
16 1
Li	      2.31181      2.09058     -0.00067        -0.018388      0.000795      0.000188
Li	      4.20692      2.09406     -2.08943         0.000288      0.000058     -0.000859
Li	      6.10302      4.18301     -2.09179         0.017919      0.000297     -0.000228
Li	      4.20916      4.18435     -4.18144        -0.000899     -0.000227      0.000412
Mn	      0.00060      0.01886     -0.01529         0.001690      0.039298     -0.042322
Mn	      8.41392      4.16844     -4.16501        -0.001678     -0.042517      0.039501
Ni	      2.21033      4.17932     -2.09288        -0.043960      0.006893     -0.005033
Ni	      6.20524      6.27329     -4.18736         0.044983     -0.004386      0.007444
O	      6.49901      4.23108     -4.22931         0.043279     -0.084818      0.086451
O	      0.00098      4.17535     -2.09884        -0.000154      0.009481      0.009591
O	      6.49897      2.04870     -2.04692         0.041230      0.084259     -0.083514
O	      0.00046      2.09459      0.00301         0.000084     -0.009313     -0.009363
O	      1.91553      2.13720     -2.13491        -0.041337     -0.083832      0.084669
O	      4.15177      4.18127     -2.09288         0.155262     -0.003362      0.001641
O	      1.91640      4.13728     -4.13506        -0.043659      0.085637     -0.085256
O	      4.26381      6.27306     -4.18518        -0.154659      0.001738     -0.003321
