# total energy = -77.00801406 eV
 
CRYSTAL
PRIMVEC
-2.022650 4.015823 -2.022752 
1.985758 3.978326 1.985943 
2.031443 0.018691 -6.040303 
PRIMCOORD
16 1
Li	      3.94841      3.93527     -3.98313         0.193281      0.031593     -0.046949
Li	     -0.06109      5.91434     -1.96722        -0.153094      0.085368      0.114986
Li	     -0.02384      3.95283     -3.95946        -0.212691      0.010972     -0.167000
Li	      0.03576      3.93547     -0.07082        -0.186739      0.004119      0.209380
Ni	      1.98063      5.91284     -4.00827         0.044165      0.526888      0.078032
Ni	     -0.00520      1.97578     -1.98597        -0.606344     -0.902558      0.402742
Ni	      1.96268      3.93523     -1.99776         0.841911      0.132252      0.551029
Ni	      2.02913      1.97589     -4.02034         0.249591     -0.528709     -0.296715
O	      1.97805      2.12024     -2.03309         0.089119     -0.999225      0.365517
O	      0.12967      3.82794     -2.01243        -0.894366      0.806305     -0.065642
O	      1.99816      5.75053     -2.01289        -0.327877      0.985844     -0.054809
O	      1.94821      1.98783     -5.97912         0.425428     -0.258688     -0.378678
O	      1.97718      4.04220     -0.16476         0.136789     -0.187648      1.053366
O	     -0.15004      3.96922     -5.93324         0.004630     -0.025399     -0.421228
O	      1.99491      5.91946     -5.93202         0.262238      0.283876     -0.583924
O	      1.94963      3.93813     -3.83327         0.133958      0.035009     -0.760108
