# total energy = -77.24180026 eV
 
CRYSTAL
PRIMVEC
-2.032917 4.036208 -2.033020 
1.995838 3.998521 1.996024 
2.041755 0.018786 -6.070964 
PRIMCOORD
16 1
Li	      3.98860      3.97533     -4.02367         0.128671      0.020778     -0.037110
Li	     -0.06171      5.97454     -1.98724        -0.099932      0.052415      0.086203
Li	     -0.02408      3.99306     -3.99976        -0.138740      0.005834     -0.106259
Li	      0.03613      3.97553     -0.07154        -0.121292      0.004308      0.135082
Ni	      2.00079      5.97302     -4.04907         0.010816      0.339021      0.066461
Ni	     -0.00525      1.99589     -2.00618        -0.391553     -0.575660      0.272887
Ni	      1.98266      3.97528     -2.01809         0.522583      0.082900      0.360431
Ni	      2.04979      1.99601     -4.06126         0.180257     -0.334333     -0.213580
O	      1.99818      2.14182     -2.05378         0.057898     -0.674099      0.269116
O	      0.13099      3.86691     -2.03291        -0.602925      0.570699     -0.044145
O	      2.01850      5.80906     -2.03337        -0.245241      0.665317     -0.041004
O	      1.96804      2.00806     -6.03998         0.318911     -0.167755     -0.245053
O	      1.99730      4.08334     -0.16644         0.087753     -0.179632      0.703478
O	     -0.15157      4.00962     -5.99363         0.033303     -0.019716     -0.276014
O	      2.01522      5.97971     -5.99239         0.165409      0.183989     -0.421305
O	      1.96947      3.97822     -3.87228         0.094083      0.025936     -0.509188
