# total energy = -77.39433883 eV
 
CRYSTAL
PRIMVEC
-2.043184 4.056593 -2.043287 
2.005918 4.018715 2.006105 
2.052067 0.018881 -6.101626 
PRIMCOORD
16 1
Li	      4.02899      4.01558     -4.06442         0.070910      0.011618     -0.028869
Li	     -0.06234      6.03504     -2.00736        -0.056967      0.021642      0.052259
Li	     -0.02432      4.03350     -4.04026        -0.069072      0.003627     -0.050958
Li	      0.03649      4.01578     -0.07227        -0.060793      0.000678      0.064728
Ni	      2.02105      6.03351     -4.09007        -0.017917      0.158503      0.060225
Ni	     -0.00531      2.01610     -2.02650        -0.197395     -0.275376      0.148000
Ni	      2.00274      4.01553     -2.03853         0.238441      0.040662      0.181011
Ni	      2.07054      2.01622     -4.10239         0.117007     -0.157484     -0.139301
O	      2.01841      2.16351     -2.07458         0.037414     -0.379341      0.176892
O	      0.13231      3.90606     -2.05349        -0.342003      0.362429     -0.020676
O	      2.03894      5.86788     -2.05397        -0.162744      0.376813     -0.029329
O	      1.98797      2.02840     -6.10114         0.213132     -0.080548     -0.114785
O	      2.01752      4.12469     -0.16812         0.040954     -0.171858      0.387644
O	     -0.15310      4.05022     -6.05432         0.063028     -0.014832     -0.135533
O	      2.03562      6.04026     -6.05308         0.076210      0.087330     -0.264198
O	      1.98942      4.01850     -3.91149         0.049794      0.016138     -0.287108
