# total energy = -77.48505132 eV
 
CRYSTAL
PRIMVEC
-2.063719 4.097363 -2.063823 
2.026078 4.059104 2.026266 
2.072690 0.019070 -6.162949 
PRIMCOORD
16 1
Li	      0.01161      0.01853     -0.00984        -0.028095     -0.010559     -0.012733
Li	     -0.06360      6.15696     -2.04792         0.019984     -0.023204     -0.015809
Li	     -0.02482      4.11498     -4.12188         0.048777      0.000520      0.055061
Li	      0.03723      4.09691     -0.07373         0.049091     -0.003395     -0.053923
Ni	      2.06188      6.15539     -4.17270        -0.079033     -0.143255      0.039750
Ni	     -0.00541      2.05683     -2.06744         0.130810      0.250308     -0.097142
Ni	      2.04320      4.09665     -2.07971        -0.254420     -0.029055     -0.124896
Ni	      2.11237      2.05695     -4.18526         0.001596      0.142277      0.021228
O	      2.05919      2.20721     -2.11649         0.018395      0.092665      0.010991
O	      0.13498      3.98497     -2.09498         0.089379     -0.004780      0.022060
O	      2.08013      5.98642     -2.09546        -0.023214     -0.101348     -0.017078
O	     -0.04456      2.05031     -0.06144         0.024176      0.077499      0.131198
O	      2.05828      4.20801     -0.17152        -0.035683     -0.162271     -0.134215
O	     -0.15620      4.13204     -6.17663         0.154189     -0.008384      0.115301
O	      0.00405      6.14321     -0.01241        -0.084632     -0.086206      0.019841
O	      2.02961      4.09968     -3.99051        -0.031321      0.009189      0.040366
