# total energy = -77.43764251 eV
 
CRYSTAL
PRIMVEC
-2.073986 4.117748 -2.074091 
2.036158 4.079299 2.036347 
2.083002 0.019165 -6.193610 
PRIMCOORD
16 1
Li	      0.03222      0.03910     -0.03062        -0.069569     -0.022134     -0.005803
Li	     -0.06423      6.21838     -2.06835         0.055481     -0.036482     -0.049078
Li	     -0.02506      4.15603     -4.16300         0.100184     -0.002257      0.103855
Li	      0.03760      4.13778     -0.07446         0.096793     -0.006751     -0.108392
Ni	      2.08244      6.21680     -4.21432        -0.110277     -0.270795      0.030641
Ni	     -0.00547      2.07735     -2.08806         0.274011      0.479195     -0.215002
Ni	      2.06358      4.13752     -2.10045        -0.467939     -0.066079     -0.256969
Ni	      2.13344      2.07747     -4.22701        -0.045954      0.270942      0.091495
O	      2.07973      2.22922     -2.13761         0.017743      0.251160     -0.066752
O	      0.13633      4.02472     -2.11587         0.241907     -0.157701      0.042692
O	      2.10088      6.04614     -2.11636         0.041731     -0.261751     -0.014130
O	     -0.03464      2.07085     -0.09288        -0.064833      0.150739      0.253406
O	      2.07881      4.24999     -0.17322        -0.073065     -0.159673     -0.324159
O	     -0.15775      4.17325     -6.23824         0.238859     -0.010835      0.230377
O	      0.01446      6.20458     -0.04335        -0.161068     -0.165569      0.157642
O	      2.04985      4.14057     -4.03031        -0.074005      0.007991      0.130177
