# total energy = -77.19019337 eV
 
CRYSTAL
PRIMVEC
-2.094520 4.158517 -2.094626 
2.056318 4.119688 2.056509 
2.103626 0.019355 -6.254933 
PRIMCOORD
16 1
Li	      0.07405      0.08086     -0.07280        -0.143847     -0.034351      0.005873
Li	     -0.06551      6.34212     -2.10951         0.119043     -0.060444     -0.123069
Li	     -0.02556      4.23873     -4.24584         0.181668     -0.003591      0.182904
Li	      0.03835      4.22012     -0.07595         0.178633     -0.004054     -0.192511
Ni	      2.12389      6.34051     -4.29818        -0.170086     -0.486745      0.025543
Ni	     -0.00558      2.11869     -2.12961         0.513859      0.857276     -0.455006
Ni	      2.10464      4.21985     -2.14226        -0.835500     -0.118885     -0.463462
Ni	      2.17590      2.11881     -4.31113        -0.141722      0.479756      0.227661
O	      2.12112      2.27359     -2.18014         0.048735      0.449125     -0.217625
O	      0.13905      4.10481     -2.15798         0.461163     -0.415940      0.082642
O	      0.08637      2.04677     -4.21498         0.171982     -0.474012     -0.014373
O	     -0.01451      2.11226     -0.15665        -0.238504      0.283186      0.491416
O	      2.12018      4.33456     -0.17667        -0.130690     -0.147425     -0.588233
O	     -0.16089      4.25630     -6.36239         0.449261     -0.017738      0.425676
O	      0.03557      6.32825     -0.10614        -0.294539     -0.315562      0.417115
O	      2.09065      4.22297     -4.11052        -0.169456      0.009404      0.195449
