# total energy = -77.00139474 eV
 
CRYSTAL
PRIMVEC
-2.104788 4.178902 -2.104894 
2.066398 4.139883 2.066590 
2.113938 0.019450 -6.285594 
PRIMCOORD
16 1
Li	      0.09527      0.10204     -0.09420        -0.171520     -0.041038      0.010250
Li	     -0.06616      6.40445     -2.13024         0.143389     -0.068965     -0.160970
Li	     -0.02581      4.28039     -4.28757         0.213016     -0.005645      0.220000
Li	      0.03873      4.26159     -0.07669         0.214324     -0.005044     -0.227030
Ni	      2.14476      6.40282     -4.34042        -0.197944     -0.574595      0.023091
Ni	     -0.00563      2.13951     -2.15054         0.611695      1.017504     -0.584072
Ni	      2.12532      4.26133     -2.16331        -0.991396     -0.140602     -0.547466
Ni	      2.19729      2.13963     -4.35350        -0.185083      0.564700      0.296190
O	      2.14196      2.29593     -2.20156         0.070194      0.514691     -0.280927
O	      0.14041      4.14515     -2.17919         0.549068     -0.518893      0.099711
O	      0.09735      2.08718     -4.24628         0.231601     -0.545508     -0.013439
O	     -0.00429      2.13311     -0.18901        -0.320458      0.345927      0.614886
O	      2.14102      4.37716     -0.17841        -0.159447     -0.148194     -0.695055
O	     -0.16247      4.29813     -6.42492         0.558978     -0.018662      0.510555
O	      0.04629      6.39054     -0.13800        -0.356068     -0.381839      0.536103
O	      2.11119      4.26447     -4.15092        -0.210349      0.006165      0.198174
