# total energy = -92.06401061 eV
 
CRYSTAL
PRIMVEC
-0.000002 2.045552 2.045521 
4.125816 -4.236374 4.236223 
4.125848 4.236410 -4.236260 
PRIMCOORD
16 1
Li	      2.06279      2.15607     -0.11067        -0.001112      0.021554     -0.020937
Li	      4.12510      4.16324     -0.07290         0.000460      0.001595      0.000341
Li	      2.06204     -0.11018      2.15654         0.000908     -0.020686      0.020396
Li	      4.12560     -0.07389      4.16257        -0.000409      0.002339      0.001185
Mn	      0.11977      0.00070      0.00001         0.080423     -0.001951      0.001536
Mn	      4.00509      0.00028      0.00039        -0.080383     -0.005366      0.004865
Ni	      6.18803      2.12148     -0.07559         0.001042     -0.021810      0.022019
Ni	      6.18849     -0.07540      2.12123        -0.001348      0.022053     -0.021811
O	      6.18778      2.03264     -2.03235        -0.000015      0.112701     -0.112993
O	      6.18823      0.00047      0.00012         0.000422     -0.000574     -0.000417
O	      4.13790     -2.28604      4.33213         0.091772     -0.020476      0.019862
O	      6.18874     -2.03220      2.03248        -0.000459     -0.114370      0.113848
O	      4.13785      4.33308     -2.28662         0.092331      0.019348     -0.020574
O	      2.06247      0.00033      0.00042         0.000188      0.000233     -0.001268
O	      4.11273      1.94966      0.09650        -0.091742     -0.016974      0.017216
O	      4.11290      0.09604      1.95027        -0.092078      0.022386     -0.023269
