# total energy = -76.21879235 eV
 
CRYSTAL
PRIMVEC
-2.135589 4.240057 -2.135697 
2.096638 4.200466 2.096833 
2.144874 0.019735 -6.377579 
PRIMCOORD
16 1
Li	      0.16015      0.16681     -0.15962        -0.239826     -0.066230      0.019050
Li	     -0.06811      6.59327     -2.19304         0.216474     -0.082538     -0.279737
Li	     -0.02657      4.40659     -4.41397         0.272489     -0.007833      0.309941
Li	      0.03987      4.38723     -0.07895         0.306200     -0.001121     -0.300996
Ni	      2.20799      6.59159     -4.46839        -0.288136     -0.766138      0.025878
Ni	     -0.00580      2.20259     -2.21395         0.833372      1.380583     -0.975364
Ni	      2.18799      4.38696     -2.22708        -1.366933     -0.178975     -0.731564
Ni	      2.26206      2.20272     -4.48185        -0.307821      0.758777      0.480709
O	      2.20511      2.36362     -2.26648         0.174267      0.637454     -0.439543
O	      0.14455      4.26736     -2.24344         0.772818     -0.731249      0.146441
O	      0.13090      2.21018     -4.34078         0.395951     -0.697749     -0.017533
O	      0.02698      2.19629     -0.28791        -0.545633      0.512736      0.989985
O	      2.20414      4.50621     -0.18367        -0.231486     -0.170798     -0.959364
O	     -0.16727      4.42485     -6.61434         0.869055     -0.022595      0.706860
O	      0.07904      6.57923     -0.23539        -0.530947     -0.562020      0.849968
O	      2.17343      4.39020     -4.27330        -0.329844     -0.002304      0.175271
