# total energy = -75.89659248 eV
 
CRYSTAL
PRIMVEC
-2.145857 4.260442 -2.145965 
2.106718 4.220661 2.106914 
2.155186 0.019829 -6.408240 
PRIMCOORD
16 1
Li	      0.18218      0.18881     -0.18184        -0.254233     -0.072210      0.020417
Li	     -0.06876      6.65682     -2.21418         0.235929     -0.082860     -0.320532
Li	     -0.02683      4.44906     -4.45652         0.277567     -0.006746      0.335035
Li	      0.04025      4.42952     -0.07971         0.331116      0.001134     -0.313684
Ni	      2.22927      6.65513     -4.51145        -0.318678     -0.813682      0.024436
Ni	     -0.00586      2.22382     -2.23528         0.878696      1.470395     -1.112602
Ni	      2.20907      4.42924     -2.24855        -1.464527     -0.184672     -0.764643
Ni	      2.28387      2.22394     -4.52505        -0.341718      0.800664      0.535564
O	      2.22636      2.38641     -2.28832         0.218224      0.660946     -0.483452
O	      0.14594      4.30850     -2.26506         0.828438     -0.774162      0.155367
O	      0.14229      2.25178     -4.37249         0.444555     -0.728185     -0.019596
O	      0.03760      2.21755     -0.32149        -0.607714      0.559238      1.128096
O	      2.22538      4.54964     -0.18544        -0.251859     -0.181475     -1.031665
O	     -0.16888      4.46750     -6.67809         0.967369     -0.021130      0.746872
O	      0.09016      6.64275     -0.26847        -0.581243     -0.620185      0.945502
O	      2.19438      4.43252     -4.31449        -0.361921     -0.007071      0.154885
