# total energy = -75.54928220 eV
 
CRYSTAL
PRIMVEC
-2.156124 4.280827 -2.156233 
2.116798 4.240855 2.116995 
2.165497 0.019924 -6.438902 
PRIMCOORD
16 1
Li	      0.20442      0.21101     -0.20426        -0.263564     -0.078331      0.016490
Li	     -0.06942      6.72068     -2.23542         0.252157     -0.082581     -0.362401
Li	     -0.02709      4.49173     -4.49927         0.279279     -0.008517      0.359704
Li	      0.04064      4.47201     -0.08047         0.358785      0.003213     -0.325252
Ni	      2.25066      6.71897     -4.55474        -0.350069     -0.846137      0.033160
Ni	     -0.00591      2.24515     -2.25673         0.911868      1.543151     -1.254089
Ni	      2.23026      4.47173     -2.27012        -1.548588     -0.195465     -0.786586
Ni	      2.30577      2.24528     -4.56846        -0.379561      0.836045      0.588048
O	      2.24772      2.40929     -2.31027         0.264111      0.672722     -0.523183
O	      0.14734      4.34982     -2.28678         0.882254     -0.805563      0.168890
O	      0.15378      2.29367     -4.40431         0.490298     -0.747626     -0.030243
O	      0.04832      2.23892     -0.35538        -0.668932      0.607237      1.263862
O	      2.24673      4.59329     -0.18722        -0.275577     -0.193123     -1.096690
O	     -0.17050      4.51036     -6.74215         1.063205     -0.017917      0.787301
O	      0.10139      6.70656     -0.30185        -0.627039     -0.674854      1.035416
O	      2.21543      4.47503     -4.35587        -0.388626     -0.012255      0.125575
