# total energy = -74.06013248 eV
 
CRYSTAL
PRIMVEC
-0.000082 1.954194 1.952878 
7.744942 -0.000189 0.000011 
0.000017 3.960407 -3.958888 
PRIMCOORD
16 1
Li	      0.00228      0.13353     -0.05097        -0.294254     -0.481755      0.309470
Li	      1.85334      1.90145      0.00741         0.123957     -0.265107      0.178013
Li	      3.70018      1.83300     -1.79519         0.053009     -0.135045     -0.246233
Li	      5.54705      1.90107      0.00795         0.733575     -0.152951      0.053113
Ni	      5.55087      3.75387     -1.91934         1.821697     -1.066910     -0.973852
Ni	      3.70013      0.01500     -0.00927        -0.051229     -2.396650      1.184762
Ni	      0.00197      3.74036     -0.01687        -3.855534      1.893401      0.800393
Ni	      1.84940      3.75401     -1.91900         0.607538     -0.860419     -1.579293
O	      3.70022      1.85947      0.13661         0.045072      1.286680     -0.712022
O	      5.64032      3.81256     -0.11552         1.007252     -0.137251      1.865208
O	      3.70007      3.74769     -2.03245        -1.328749      0.068091     -0.197106
O	      5.45860      5.56612     -1.85246         2.400871      2.209677     -0.972331
O	      0.00167      2.02248     -0.03394        -0.881695     -2.889108      0.912752
O	      1.75981      3.81339     -0.11516         2.710599     -0.569191      1.798257
O	      0.00201      3.62796     -1.93570        -1.186968      0.875600     -1.410103
O	      1.94166      5.56541     -1.85211        -1.905139      2.620938     -1.011028
