# total energy = -74.80433150 eV
 
CRYSTAL
PRIMVEC
-0.000083 1.964426 1.963102 
7.785491 -0.000190 0.000011 
0.000017 3.981142 -3.979615 
PRIMCOORD
16 1
Li	      0.00230      0.13494     -0.05151        -0.263462     -0.407823      0.266359
Li	      1.87279      1.92141      0.00749         0.106422     -0.215198      0.150908
Li	      3.73903      1.85225     -1.81404         0.055678     -0.105316     -0.203496
Li	      5.60528      1.92103      0.00803         0.621591     -0.114341      0.042136
Ni	      5.60914      3.79328     -1.93949         1.562063     -0.905253     -0.791475
Ni	      3.73897      0.01516     -0.00938        -0.007865     -2.088735      1.062190
Ni	      0.00199      3.77963     -0.01705        -3.346033      1.579858      0.657837
Ni	      1.86882      3.79342     -1.93915         0.519787     -0.698373     -1.300095
O	      3.73906      1.87899      0.13805         0.027548      1.088403     -0.643446
O	      5.69954      3.85259     -0.11673         0.876588     -0.138953      1.579178
O	      3.73891      3.78703     -2.05379        -1.047731      0.038742     -0.167865
O	      5.51592      5.62456     -1.87191         2.061240      1.931631     -0.880284
O	      0.00169      2.04371     -0.03430        -0.746479     -2.443463      0.806107
O	      1.77828      3.85343     -0.11637         2.322011     -0.532101      1.430846
O	      0.00203      3.66605     -1.95603        -1.090528      0.728595     -1.190906
O	      1.96204      5.62384     -1.87156        -1.650829      2.282329     -0.817996
