# total energy = -76.44488941 eV
 
CRYSTAL
PRIMVEC
-0.000084 1.995120 1.993776 
7.907139 -0.000193 0.000011 
0.000017 4.043348 -4.041796 
PRIMCOORD
16 1
Li	      0.00238      0.13919     -0.05313        -0.159157     -0.220653      0.147582
Li	      1.93177      1.98192      0.00773         0.057662     -0.113568      0.084884
Li	      3.85679      1.91058     -1.87117         0.037254     -0.036414     -0.100727
Li	      5.78182      1.98153      0.00829         0.369092     -0.043604      0.016210
Ni	      5.78580      3.91274     -2.00057         0.910704     -0.490084     -0.372505
Ni	      3.85673      0.01564     -0.00967         0.005848     -1.254114      0.709964
Ni	      0.00205      3.89867     -0.01759        -1.935641      0.822014      0.309994
Ni	      1.92768      3.91289     -2.00021         0.269138     -0.309763     -0.611973
O	      3.85682      1.93817      0.14240         0.011540      0.607802     -0.448306
O	      5.87904      3.97393     -0.12041         0.507872     -0.090149      0.841925
O	      3.85667      3.90630     -2.11847        -0.354954     -0.012115     -0.120656
O	      5.68964      5.80170     -1.93086         1.202967      1.110589     -0.565273
O	      0.00174      2.10807     -0.03537        -0.423974     -1.334002      0.535000
O	      1.83429      3.97479     -0.12003         1.307521     -0.276297      0.820015
O	      0.00209      3.78150     -2.01763        -0.849309      0.397902     -0.666514
O	      2.02383      5.80096     -1.93050        -0.956563      1.242455     -0.579619
