# total energy = -77.30267035 eV
 
CRYSTAL
PRIMVEC
-0.000085 2.025814 2.024449 
8.028788 -0.000196 0.000012 
0.000018 4.105553 -4.103978 
PRIMCOORD
16 1
Li	      0.00245      0.14350     -0.05478        -0.064154     -0.072088      0.037484
Li	      1.99167      2.04338      0.00796         0.012566     -0.034237      0.034283
Li	      3.97637      1.96982     -1.92918         0.017900     -0.015664     -0.008813
Li	      5.96109      2.04297      0.00854         0.147296     -0.006860      0.003931
Ni	      5.96519      4.03406     -2.06260         0.359517     -0.159312     -0.094357
Ni	      3.97631      0.01612     -0.00997         0.008864     -0.448785      0.257282
Ni	      0.00212      4.01955     -0.01813        -0.740950      0.251303      0.119869
Ni	      1.98745      4.03422     -2.06224         0.090605     -0.085702     -0.185772
O	      3.97640      1.99826      0.14681        -0.003804      0.269810     -0.262662
O	      6.06132      4.09714     -0.12414         0.154309     -0.085097      0.327644
O	      3.97625      4.02742     -2.18416        -0.111975     -0.058205      0.011877
O	      5.86605      5.98158     -1.99073         0.494427      0.445205     -0.282292
O	      0.00180      2.17343     -0.03647        -0.154311     -0.531552      0.294840
O	      1.89116      4.09803     -0.12376         0.533838     -0.159553      0.322989
O	      0.00217      3.89875     -2.08019        -0.338292      0.202813     -0.284561
O	      2.08658      5.98082     -1.99035        -0.405837      0.487923     -0.291743
