# total energy = -92.14772559 eV
 
CRYSTAL
PRIMVEC
-2.044486 4.142227 -2.043891 
2.044508 4.142222 2.043864 
2.159602 -0.000035 -6.246116 
PRIMCOORD
16 1
Li	      0.13250      6.21056     -2.17300         0.031076     -0.000941     -0.031447
Li	      0.05735      4.13898     -4.14550         0.002365      0.000520      0.001560
Li	      2.03138      6.21051     -4.07004        -0.033761      0.001489      0.031774
Li	      2.10216      4.13987     -2.10166         0.001698     -0.000407      0.001425
Mn	     -2.04211      4.13963     -2.04203         0.010635     -0.002961      0.007934
Mn	      0.00284      4.13948      0.00231        -0.007935      0.001506     -0.011137
Ni	      0.06941      2.06835     -2.10976         0.001311      0.002808      0.012064
Ni	      2.09470      2.06843     -4.13306         0.000230     -0.002676     -0.012909
O	      0.21493      4.15572     -6.34003         0.041784     -0.127674     -0.052164
O	      0.11814      2.06839     -4.08491        -0.149305      0.000185     -0.153397
O	      2.25949      4.12330     -4.29621         0.040056      0.126906     -0.049268
O	      1.95002      4.15570      0.09802        -0.040470     -0.127774      0.050517
O	      2.04574      2.06837     -2.15815         0.148787      0.001001      0.152179
O	      0.00260      6.21067      0.00207        -0.001041      0.001678      0.000266
O	     -0.09438      4.12332     -1.94586        -0.044483      0.124590      0.052352
O	      0.00273      2.06837      0.00194        -0.000948      0.001750      0.000252
