# total energy = -77.39576508 eV
 
CRYSTAL
PRIMVEC
-0.000087 2.066739 2.065347 
8.190985 -0.000200 0.000012 
0.000018 4.188494 -4.186887 
PRIMCOORD
16 1
Li	      0.00255      0.14936     -0.05702         0.069560      0.057474     -0.067912
Li	      2.07296      2.12677      0.00829        -0.021090      0.025284     -0.018169
Li	      4.13866      2.05021     -2.00792        -0.019391     -0.020036      0.079198
Li	      6.20438      2.12635      0.00889        -0.135751     -0.001931      0.001476
Ni	      6.20864      4.19870     -2.14678        -0.380142      0.158612      0.087193
Ni	      4.13859      0.01678     -0.01038        -0.007007      0.483920     -0.347339
Ni	      0.00229      2.11686     -2.08422         0.728729     -0.233043      0.009702
Ni	      2.06855      4.19886     -2.14640        -0.062452      0.082092      0.163391
O	      4.13869      2.07982      0.15280        -0.002815      0.008114     -0.060835
O	      6.30879      2.19761     -2.19455        -0.523879     -0.060192     -0.134153
O	      4.13853      4.19179     -2.27330         0.088598     -0.166116      0.239057
O	      6.10554      4.15897     -4.13732        -0.145512     -0.263655      0.069816
O	      0.00187      2.26214     -0.03796         0.156375      0.185645     -0.046640
O	      1.96843      2.19854     -2.19416        -0.154439     -0.000317     -0.128604
O	      0.00225      4.05787     -2.16508         0.352666      0.038071      0.088901
O	      2.17182      4.15818     -4.13693         0.056549     -0.293922      0.064918
