# total energy = -77.36602128 eV
 
CRYSTAL
PRIMVEC
-0.000087 2.076971 2.075572 
8.231535 -0.000201 0.000012 
0.000018 4.209229 -4.207614 
PRIMCOORD
16 1
Li	      0.00257      0.15084     -0.05758         0.104778      0.083116     -0.091915
Li	      2.09353      2.14788      0.00837        -0.027775      0.034995     -0.028105
Li	      4.17973      2.07056     -2.02785        -0.028888     -0.021201      0.093195
Li	      6.26596      2.14745      0.00898        -0.208819     -0.009529      0.006775
Ni	      6.27027      4.24038     -2.16809        -0.588776      0.221717      0.094777
Ni	      4.17967      0.01695     -0.01048        -0.011094      0.685646     -0.481464
Ni	      0.00231      2.14815     -2.09463         1.108451     -0.319433      0.010056
Ni	      2.08909      4.24054     -2.16770        -0.084123      0.102604      0.215101
O	      4.17977      2.10046      0.15432        -0.000679     -0.042199     -0.013934
O	      6.37141      2.22971     -2.20606        -0.754712     -0.037724     -0.231720
O	      4.17960      4.23339     -2.29586         0.128429     -0.194577      0.299311
O	      6.16614      4.21053     -4.16811        -0.268516     -0.416829      0.163847
O	      0.00189      2.28459     -0.03834         0.232794      0.325678     -0.129119
O	      1.98797      2.23065     -2.20566        -0.271555      0.053687     -0.229342
O	      0.00227      4.09814     -2.18657         0.534617     -0.006882      0.165759
O	      2.19338      4.20973     -4.16772         0.135866     -0.459069      0.156780
