# total energy = -77.20686412 eV
 
CRYSTAL
PRIMVEC
-0.000088 2.087202 2.085796 
8.272084 -0.000202 0.000012 
0.000018 4.229964 -4.228341 
PRIMCOORD
16 1
Li	      0.00260      0.15233     -0.05815         0.143848      0.107681     -0.115404
Li	      2.11420      2.16909      0.00846        -0.033365      0.045817     -0.036020
Li	      4.22101      2.09101     -2.04787        -0.038369     -0.027940      0.107132
Li	      6.32785      2.16866      0.00907        -0.287162     -0.017839      0.010793
Ni	      6.33219      4.28226     -2.18950        -0.802514      0.276506      0.100544
Ni	      4.22095      0.01711     -0.01058        -0.021697      0.880260     -0.618212
Ni	      0.00233      2.17965     -2.10504         1.504527     -0.397533      0.022658
Ni	      2.10972      4.28242     -2.18911        -0.102803      0.119219      0.259752
O	      4.22104      2.12121      0.15584         0.001393     -0.075555      0.026505
O	      6.43433      2.26201     -2.21757        -1.021520     -0.021034     -0.314452
O	      4.22089      4.27520     -2.31854         0.164692     -0.230707      0.365601
O	      6.22702      0.03243      0.02934        -0.373475     -0.555203      0.247817
O	      0.00191      2.30715     -0.03872         0.311808      0.453146     -0.204949
O	      2.00760      2.26296     -2.21717        -0.374958      0.099646     -0.315750
O	      0.00230      4.13862     -2.20817         0.733722     -0.043797      0.225189
O	      2.21502      0.03163      0.02974         0.195870     -0.612667      0.238797
