# total energy = -76.91649263 eV
 
CRYSTAL
PRIMVEC
-0.000088 2.097434 2.096020 
8.312634 -0.000203 0.000012 
0.000018 4.250699 -4.249068 
PRIMCOORD
16 1
Li	      0.00263      0.15383     -0.05872         0.182438      0.136079     -0.140881
Li	      2.13498      2.19041      0.00854        -0.041480      0.056050     -0.042785
Li	      4.26250      2.11156     -2.06800        -0.048248     -0.040970      0.123048
Li	      6.39003      2.18998      0.00916        -0.368448     -0.023684      0.015141
Ni	      6.39443      4.32434     -2.21102        -1.032168      0.319542      0.105195
Ni	      4.26244      0.01728     -0.01069        -0.018930      1.068298     -0.757708
Ni	      0.00235      2.21135     -2.11546         1.924203     -0.469437      0.047855
Ni	      2.13046      4.32451     -2.21063        -0.120446      0.123733      0.300182
O	      4.26253      2.14205      0.15737         0.001626     -0.101238      0.054734
O	      6.49757      2.29452     -2.22909        -1.332030     -0.002875     -0.395651
O	      4.26237      4.31722     -2.34132         0.196022     -0.274347      0.449661
O	      6.28822      0.06387      0.01907        -0.462004     -0.677740      0.321762
O	      0.00193      2.32983     -0.03910         0.396269      0.571059     -0.276663
O	      2.02733      2.29548     -2.22868        -0.458647      0.141214     -0.389651
O	      0.00232      4.17930     -2.22987         0.942390     -0.082237      0.275495
O	      2.23680      0.06306      0.01947         0.239454     -0.743449      0.310267
