# total energy = -76.73515267 eV
 
CRYSTAL
PRIMVEC
-0.000089 2.107665 2.106245 
8.353183 -0.000204 0.000012 
0.000018 4.271434 -4.269795 
PRIMCOORD
16 1
Li	      0.00265      0.15533     -0.05930         0.235054      0.156944     -0.153678
Li	      2.15586      2.21183      0.00862        -0.046795      0.062344     -0.046121
Li	      4.30419      2.13221     -2.08823        -0.060760     -0.044607      0.132602
Li	      6.45252      2.21139      0.00925        -0.455473     -0.034212      0.023142
Ni	      6.45696      4.36663     -2.23264        -1.287694      0.364016      0.087410
Ni	      4.30412      0.01745     -0.01079        -0.028635      1.233967     -0.872608
Ni	      0.00238      2.24326     -2.12587         2.369352     -0.521461      0.082231
Ni	      2.15129      4.36680     -2.23225        -0.129815      0.130292      0.321268
O	      4.30422      2.16300      0.15892         0.004069     -0.131760      0.094277
O	      6.56111      2.32724     -2.24062        -1.674213      0.028992     -0.471666
O	      4.30405      4.35944     -2.36422         0.225668     -0.314249      0.505950
O	      6.34972      0.09561      0.00871        -0.553801     -0.800450      0.404924
O	      0.00194      2.35261     -0.03948         0.482145      0.686952     -0.354956
O	      2.04716      2.32821     -2.24021        -0.536385      0.194122     -0.471871
O	      0.00234      4.22017     -2.25168         1.170109     -0.131025      0.324749
O	      2.25867      0.09479      0.00911         0.287174     -0.879864      0.394346
