# total energy = -76.42478179 eV
 
CRYSTAL
PRIMVEC
-0.000089 2.117896 2.116469 
8.393733 -0.000205 0.000012 
0.000018 4.292169 -4.290522 
PRIMCOORD
16 1
Li	      0.00268      0.15685     -0.05987         0.288162      0.178998     -0.173692
Li	      2.17685      2.23336      0.00870        -0.052495      0.072058     -0.052763
Li	      4.34607      2.15297     -2.10855        -0.073201     -0.052984      0.141567
Li	      6.51532      2.23291      0.00934        -0.543701     -0.047183      0.027591
Ni	      6.51981      4.40913     -2.25437        -1.565275      0.399857      0.074166
Ni	      4.34601      0.01762     -0.01090        -0.034965      1.392245     -0.990707
Ni	      0.00240      2.27537     -2.13629         2.852534     -0.577880      0.127272
Ni	      2.17223      4.40930     -2.25397        -0.135629      0.125604      0.343649
O	      4.34611      2.18405      0.16046         0.006604     -0.149978      0.123352
O	      6.62496      2.36018     -2.25215        -2.070521      0.065567     -0.548130
O	      4.34594      4.40187     -2.38723         0.251493     -0.366331      0.582989
O	      6.41152      0.12766     -0.00177        -0.635504     -0.903397      0.482769
O	      0.00196      2.37551     -0.03986         0.577046      0.789977     -0.428917
O	      2.06708      2.36115     -2.25174        -0.603732      0.247568     -0.544255
O	      0.00236      4.26124     -2.27359         1.418880     -0.178842      0.363850
O	      2.28065      0.12683     -0.00135         0.320303     -0.995280      0.471258
