# total energy = -76.06585252 eV
 
CRYSTAL
PRIMVEC
-0.000089 2.128128 2.126694 
8.434282 -0.000206 0.000012 
0.000018 4.312904 -4.311249 
PRIMCOORD
16 1
Li	      0.00271      0.15837     -0.06045         0.348519      0.201394     -0.195517
Li	      2.19793      2.25498      0.00879        -0.062615      0.079089     -0.056802
Li	      4.38817      2.17382     -2.12897        -0.085553     -0.062612      0.152433
Li	      6.57843      2.25454      0.00943        -0.642960     -0.058427      0.033182
Ni	      6.58295      4.45184     -2.27621        -1.868785      0.428677      0.048822
Ni	      4.38810      0.01779     -0.01100        -0.042050      1.545463     -1.103795
Ni	      0.00243      2.30769     -2.14670         3.377674     -0.638995      0.187426
Ni	      2.19327      4.45200     -2.27580        -0.133151      0.117513      0.353560
O	      4.38820      2.20521      0.16201         0.009577     -0.160749      0.152474
O	      6.68913      2.39332     -2.26369        -2.520074      0.106908     -0.618722
O	      4.38803      4.44451     -2.41035         0.278696     -0.419446      0.659195
O	      6.47361      0.16001     -0.01234        -0.711422     -1.000784      0.557327
O	      0.00198      2.39852     -0.04025         0.677296      0.886207     -0.503372
O	      2.08710      2.39430     -2.26327        -0.663691      0.300125     -0.609415
O	      0.00238      4.30251     -2.29562         1.692402     -0.226417      0.399366
O	      2.30274      0.15917     -0.01192         0.346137     -1.097947      0.543837
