# total energy = -75.19732724 eV
 
CRYSTAL
PRIMVEC
-0.000090 2.148590 2.147143 
8.515381 -0.000208 0.000012 
0.000019 4.354375 -4.352704 
PRIMCOORD
16 1
Li	      0.00276      0.16142     -0.06162         0.484938      0.239617     -0.238597
Li	      2.24040      2.29856      0.00896        -0.079563      0.096905     -0.062246
Li	      4.47296      2.21582     -2.17011        -0.111297     -0.086452      0.169646
Li	      6.70555      2.29810      0.00961        -0.881166     -0.088735      0.052476
Ni	      6.71016      4.53786     -2.32019        -2.587976      0.492735     -0.017095
Ni	      4.47289      0.01813     -0.01122        -0.055268      1.825154     -1.309766
Ni	      0.00247      2.37294     -2.16754         4.603635     -0.743347      0.346679
Ni	      2.23565      4.53803     -2.31978        -0.114908      0.092125      0.357539
O	      4.47300      2.24782      0.16515         0.015402     -0.169707      0.194730
O	      6.81838      2.46022     -2.28679        -3.628574      0.206767     -0.764507
O	      4.47282      4.53039     -2.45693         0.325824     -0.546477      0.815796
O	      6.59870      0.22563     -0.03378        -0.871738     -1.176810      0.699393
O	      0.00202      2.44487     -0.04103         0.922275      1.066519     -0.648556
O	      2.12743      2.46122     -2.28636        -0.750686      0.405591     -0.722673
O	      0.00243      4.38565     -2.33997         2.344771     -0.327218      0.452177
O	      2.34724      0.22478     -0.03336         0.384331     -1.286666      0.675003
