# total energy = -91.99909292 eV
 
CRYSTAL
PRIMVEC
4.122622 -0.000029 -0.000030 
-0.000003 4.090467 -4.090180 
0.000035 6.250073 2.159788 
PRIMCOORD
16 1
Li	      2.06198      2.16357      0.12262         0.000202     -0.016368     -0.021576
Li	      0.00050      4.14856      0.06074         0.000573     -0.001094      0.000401
Li	      2.06197      6.13113     -0.00064         0.000266      0.017515      0.020232
Li	      0.00076      6.19311     -1.98513        -0.000711     -0.001422      0.000569
Mn	      0.00063      0.02339     -0.01867         0.000159      0.036015     -0.046017
Mn	      0.00063      2.02043     -2.01848        -0.000245     -0.026655      0.053927
Ni	      2.06195      4.19707     -1.93435        -0.000144     -0.003706      0.004602
Ni	      2.06195      8.18790     -2.03350         0.000339      0.001691     -0.003211
O	      2.06188      4.14738      0.06105         0.000668      0.000628     -0.001649
O	      0.00066      6.36444      0.23457         0.000189     -0.032057     -0.030910
O	      2.06205      6.19249     -1.98422        -0.000102      0.000835     -0.001604
O	      0.00065      8.37734     -1.84428        -0.000530      0.018199      0.015006
O	      2.06194      2.10883     -2.10668        -0.000388     -0.056563      0.062973
O	      0.00065      4.00737     -2.12302        -0.000187     -0.019512     -0.019201
O	      2.06192      4.02565     -4.02053         0.000252      0.056167     -0.061552
O	      0.00065      1.92978     -0.11170        -0.000339      0.026328      0.028010
