# total energy = -72.15329929 eV
 
CRYSTAL
PRIMVEC
1.930550 3.881943 1.970460 
1.912367 -3.866224 1.957321 
3.856548 0.002447 -3.941220 
PRIMCOORD
16 1
Li	      0.08529      0.00059     -0.05544        -0.760223      0.008939     -0.107944
Li	      1.83329      1.84315     -0.00135        -0.893596      0.663780     -0.017037
Li	      5.40038      0.01343      1.91423         0.566460     -0.037003      0.402327
Li	      3.65825      1.85126      1.86354         0.095213      0.948189      0.417739
Ni	      3.66614      1.84455     -1.87146        -2.126656      2.991386     -3.033450
Ni	      1.84430      0.00718      1.84646        -4.400421     -0.587144      3.323596
Ni	      3.64020      0.00631      0.01358         1.582907     -0.318537     -0.430560
Ni	      3.65764     -1.83551     -1.87775        -1.479117     -2.818605     -2.106476
O	      3.75499     -1.73916     -0.05756        -1.036952     -3.507922      2.579388
O	      1.95249     -0.04462      0.01208        -4.675041     -0.457178     -2.436867
O	      3.67039      1.75562     -0.14838        -0.774601      3.173485      2.841149
O	      5.47775     -1.73856     -1.73555         3.316139     -2.977159     -1.436776
O	      3.53230      0.05896      1.84879         3.495749     -0.401022      2.761474
O	      3.78412     -0.00997     -1.89958        -0.496674      0.226002     -2.378059
O	      5.39359      1.75553     -1.82648         3.614871      2.879143     -1.441608
O	      5.36437      0.02650      0.01440         3.971942      0.213647      1.063103
