# total energy = -73.25371064 eV
 
CRYSTAL
PRIMVEC
1.940711 3.902374 1.980831 
1.922432 -3.886573 1.967623 
3.876845 0.002460 -3.961963 
PRIMCOORD
16 1
Li	      0.08619      0.00060     -0.05603        -0.642671      0.010793     -0.105391
Li	      1.85264      1.86260     -0.00136        -0.767330      0.565953     -0.015278
Li	      5.45738      0.01357      1.93444         0.473759     -0.033837      0.347101
Li	      3.69686      1.87080      1.88320         0.085794      0.813491      0.357475
Ni	      3.70484      1.86402     -1.89122        -1.799639      2.579887     -2.569209
Ni	      1.86376      0.00725      1.86595        -3.796715     -0.510974      2.896226
Ni	      3.67862      0.00638      0.01372         1.362786     -0.269920     -0.369334
Ni	      3.69625     -1.85488     -1.89757        -1.234202     -2.426349     -1.769627
O	      3.79462     -1.75751     -0.05816        -0.909243     -3.043925      2.198914
O	      1.97309     -0.04509      0.01221        -4.021389     -0.382428     -2.089570
O	      3.70913      1.77415     -0.14995        -0.713345      2.739067      2.419645
O	      5.53556     -1.75691     -1.75387         2.894533     -2.615938     -1.285985
O	      3.56958      0.05959      1.86831         2.986758     -0.333396      2.417239
O	      3.82406     -0.01007     -1.91963        -0.434222      0.191472     -2.094087
O	      5.45052      1.77406     -1.84576         3.115582      2.523122     -1.294528
O	      5.42099      0.02678      0.01455         3.399545      0.192983      0.956409
