# total energy = -74.20426993 eV
 
CRYSTAL
PRIMVEC
1.950872 3.922805 1.991202 
1.932497 -3.906921 1.977925 
3.897143 0.002473 -3.982707 
PRIMCOORD
16 1
Li	      0.08710      0.00060     -0.05661        -0.532417      0.009303     -0.100305
Li	      1.87209      1.88216     -0.00138        -0.651208      0.478381     -0.013678
Li	      5.51467      0.01372      1.95475         0.384245     -0.031105      0.298616
Li	      3.73567      1.89044      1.90298         0.076084      0.688662      0.300978
Ni	      3.74373      1.88359     -1.91107        -1.506928      2.198512     -2.149861
Ni	      1.88333      0.00733      1.88554        -3.234629     -0.440143      2.490941
Ni	      3.71724      0.00645      0.01387         1.151516     -0.226961     -0.310854
Ni	      3.73505     -1.87436     -1.91749        -1.015985     -2.062922     -1.468730
O	      3.83446     -1.77596     -0.05878        -0.791727     -2.605752      1.854546
O	      1.99381     -0.04556      0.01234        -3.413982     -0.316327     -1.773601
O	      3.74807      1.79278     -0.15153        -0.648165      2.334987      2.038941
O	      5.59368     -1.77535     -1.77228         2.502325     -2.263526     -1.132529
O	      3.60706      0.06021      1.88792         2.529584     -0.275232      2.087135
O	      3.86421     -0.01018     -1.93978        -0.378240      0.157066     -1.822188
O	      5.50774      1.79268     -1.86514         2.655909      2.183425     -1.152341
O	      5.47790      0.02707      0.01470         2.873619      0.171632      0.852929
