# total energy = -75.01437344 eV
 
CRYSTAL
PRIMVEC
1.961033 3.943237 2.001573 
1.942563 -3.927270 1.988227 
3.917441 0.002486 -4.003450 
PRIMCOORD
16 1
Li	      0.08800      0.00061     -0.05720        -0.437026      0.009634     -0.094128
Li	      1.89164      1.90182     -0.00139        -0.548270      0.396641     -0.012949
Li	      5.57227      0.01386      1.97516         0.313029     -0.026835      0.255529
Li	      3.77469      1.91018      1.92285         0.063989      0.563345      0.250852
Ni	      3.78283      1.90326     -1.93103        -1.240045      1.847093     -1.767912
Ni	      1.90300      0.00741      1.90523        -2.704729     -0.370943      2.099843
Ni	      3.75607      0.00651      0.01402         0.958461     -0.184330     -0.255802
Ni	      3.77406     -1.89393     -1.93751        -0.824752     -1.727466     -1.198072
O	      3.87451     -1.79451     -0.05939        -0.677050     -2.196884      1.545477
O	      2.01463     -0.04604      0.01247        -2.853831     -0.255357     -1.487316
O	      3.78721      1.81150     -0.15311        -0.582506      1.955070      1.693016
O	      5.65209     -1.79389     -1.79079         2.130455     -1.930861     -0.985957
O	      3.64473      0.06084      1.90764         2.109814     -0.219742      1.773689
O	      3.90456     -0.01029     -1.96003        -0.326866      0.128767     -1.560979
O	      5.56526      1.81141     -1.88461         2.230855      1.859755     -1.007812
O	      5.53511      0.02735      0.01486         2.388474      0.152113      0.752521
