# total energy = -75.69393897 eV
 
CRYSTAL
PRIMVEC
1.971194 3.963668 2.011944 
1.952628 -3.947619 1.998528 
3.937738 0.002498 -4.024193 
PRIMCOORD
16 1
Li	      0.08892      0.00061     -0.05780        -0.349007      0.009174     -0.090120
Li	      1.91129      1.92158     -0.00140        -0.451385      0.322570     -0.011618
Li	      5.63016      0.01400      1.99568         0.241898     -0.025339      0.214223
Li	      3.81391      1.93003      1.94283         0.053278      0.462949      0.205710
Ni	      3.82213      1.92304     -1.95109        -0.998162      1.519986     -1.426531
Ni	      1.92277      0.00748      1.92503        -2.207684     -0.308873      1.735092
Ni	      3.79509      0.00658      0.01416         0.782449     -0.148163     -0.194773
Ni	      3.81327     -1.91361     -1.95764        -0.652186     -1.418449     -0.959039
O	      3.91476     -1.81316     -0.06001        -0.574041     -1.817233      1.262523
O	      2.03556     -0.04652      0.01260        -2.336544     -0.202710     -1.229262
O	      3.82656      1.83032     -0.15470        -0.514406      1.607320      1.376510
O	      5.71082     -1.81253     -1.80939         1.779821     -1.614806     -0.837730
O	      3.68260      0.06147      1.92746         1.730405     -0.173525      1.480464
O	      3.94513     -0.01040     -1.98040        -0.284789      0.102193     -1.310870
O	      5.62309      1.83022     -1.90420         1.835828      1.556046     -0.867519
O	      5.59262      0.02763      0.01501         1.944524      0.128861      0.652941
