# total energy = -76.69979741 eV
 
CRYSTAL
PRIMVEC
1.991515 4.004530 2.032685 
1.972758 -3.988316 2.019132 
3.978333 0.002524 -4.065680 
PRIMCOORD
16 1
Li	      0.09076      0.00063     -0.05900        -0.197082      0.008744     -0.078007
Li	      1.95090      1.96140     -0.00143        -0.278285      0.193500     -0.008285
Li	      5.74685      0.01429      2.03705         0.125973     -0.018757      0.142702
Li	      3.89295      1.97003      1.98309         0.033351      0.274827      0.120385
Ni	      3.90135      1.96289     -1.99153        -0.589380      0.932620     -0.840986
Ni	      1.96262      0.00764      1.96492        -1.322713     -0.190335      1.053182
Ni	      3.87374      0.00671      0.01445         0.450499     -0.078001     -0.084908
Ni	      3.89230     -1.95327     -1.99821        -0.375609     -0.865792     -0.556647
O	      3.99589     -1.85073     -0.06125        -0.384137     -1.153717      0.777610
O	      2.07775     -0.04748      0.01286        -1.427251     -0.116734     -0.785366
O	      3.90586      1.86826     -0.15790        -0.369280      1.007904      0.847143
O	      5.82917     -1.85010     -1.84689         1.143862     -1.045678     -0.558971
O	      3.75892      0.06274      1.96741         1.073468     -0.103191      0.951440
O	      4.02689     -0.01061     -2.02144        -0.208604      0.051545     -0.844920
O	      5.73962      1.86815     -1.94366         1.144678      1.008951     -0.590553
O	      5.70853      0.02820      0.01532         1.180510      0.094114      0.456181
