# total energy = -77.04373839 eV
 
CRYSTAL
PRIMVEC
2.001676 4.024962 2.043056 
1.982823 -4.008664 2.029433 
3.998631 0.002537 -4.086423 
PRIMCOORD
16 1
Li	      0.09169      0.00063     -0.05960        -0.132055      0.008221     -0.067495
Li	      1.97086      1.98147     -0.00145        -0.201978      0.136470     -0.007206
Li	      5.80564      0.01444      2.05788         0.079763     -0.016451      0.113937
Li	      3.93278      1.99018      2.00338         0.026418      0.194713      0.086215
Ni	      3.94126      1.98297     -2.01190        -0.413311      0.669834     -0.598031
Ni	      1.98270      0.00772      1.98502        -0.933454     -0.139008      0.739651
Ni	      3.91337      0.00678      0.01460         0.310125     -0.051549     -0.044137
Ni	      3.93212     -1.97325     -2.01866        -0.257841     -0.623854     -0.391330
O	      4.03677     -1.86966     -0.06188        -0.303114     -0.859016      0.575318
O	      2.09900     -0.04797      0.01299        -1.038301     -0.079497     -0.598629
O	      3.94582      1.88737     -0.15952        -0.299202      0.744477      0.624809
O	      5.88881     -1.86902     -1.86579         0.850065     -0.783964     -0.429597
O	      3.79737      0.06339      1.98753         0.792988     -0.070053      0.715654
O	      4.06809     -0.01072     -2.04213        -0.177287      0.026382     -0.631401
O	      5.79834      1.88727     -1.96354         0.841193      0.766398     -0.452118
O	      5.76692      0.02850      0.01548         0.855992      0.076896      0.364361
