# total energy = -77.29280144 eV
 
CRYSTAL
PRIMVEC
2.011837 4.045393 2.053427 
1.992888 -4.029013 2.039735 
4.018929 0.002550 -4.107166 
PRIMCOORD
16 1
Li	      0.09262      0.00064     -0.06021        -0.073329      0.008035     -0.056906
Li	      1.99092      2.00163     -0.00146        -0.129806      0.088489     -0.002154
Li	      5.86473      0.01459      2.07883         0.038142     -0.012486      0.085369
Li	      3.97281      2.01044      2.02377         0.016924      0.120747      0.056603
Ni	      3.98137      2.00315     -2.03238        -0.263602      0.426758     -0.376141
Ni	      2.00288      0.00779      2.00523        -0.573265     -0.089009      0.444060
Ni	      3.95320      0.00685      0.01475         0.175115     -0.024920     -0.000721
Ni	      3.97214     -1.99333     -2.03920        -0.164262     -0.398478     -0.245069
O	      4.07786     -1.88869     -0.06251        -0.228101     -0.598017      0.387504
O	      2.12037     -0.04846      0.01312        -0.689989     -0.050689     -0.427812
O	      3.98598      1.90658     -0.16114        -0.222823      0.514055      0.426757
O	      5.94874     -1.88804     -1.88478         0.580064     -0.546312     -0.309446
O	      3.83602      0.06403      2.00776         0.545559     -0.042403      0.500772
O	      4.10949     -0.01083     -2.06291        -0.152744      0.005609     -0.434030
O	      5.85736      1.90647     -1.98353         0.571532      0.537468     -0.318305
O	      5.82562      0.02878      0.01564         0.570584      0.061154      0.269517
