# total energy = -77.45484528 eV
 
CRYSTAL
PRIMVEC
2.021998 4.065824 2.063798 
2.002953 -4.049361 2.050037 
4.039226 0.002563 -4.127909 
PRIMCOORD
16 1
Li	      0.09356      0.00065     -0.06082        -0.019327      0.007485     -0.044037
Li	      2.01108      2.02190     -0.00148        -0.061830      0.042438      0.001106
Li	      5.92412      0.01473      2.09988         0.001249     -0.008879      0.056125
Li	      4.01304      2.03080      2.04426         0.008424      0.056703      0.028860
Ni	      4.02169      2.02344     -2.05296        -0.125320      0.205715     -0.182884
Ni	      2.02316      0.00788      2.02553        -0.244446     -0.042544      0.171498
Ni	      3.99323      0.00693      0.01490         0.053906      0.000126      0.041157
Ni	      4.01236     -2.01352     -2.05985        -0.081731     -0.192955     -0.120305
O	      4.11915     -1.90782     -0.06314        -0.161101     -0.363141      0.218426
O	      2.14184     -0.04895      0.01326        -0.387771     -0.026824     -0.272991
O	      4.02634      1.92588     -0.16277        -0.148799      0.307484      0.255488
O	      6.00898     -1.90717     -1.90386         0.322661     -0.334227     -0.198082
O	      3.87487      0.06468      2.02810         0.326107     -0.019034      0.303309
O	      4.15111     -0.01094     -2.08380        -0.132001     -0.017081     -0.249163
O	      5.91667      1.92578     -2.00361         0.325798      0.337301     -0.187317
O	      5.88461      0.02907      0.01580         0.324181      0.047434      0.178809
