# total energy = -90.24916185 eV
 
CRYSTAL
PRIMVEC
4.150640 0.000379 0.000123 
-0.000116 -0.000366 -4.150430 
2.075888 8.443354 -2.074816 
PRIMCOORD
16 1
Li	      2.07388      2.30009     -4.15275        -0.002198     -0.012319      0.005730
Li	      4.14867      4.22285     -4.15066         0.002761     -0.002224     -0.000156
Li	      2.07516      6.14195     -4.14855         0.002135      0.012349     -0.006384
Li	      2.07390      4.21996     -2.07523         0.000768      0.001232     -0.000255
Mn	      6.22597      8.44318     -2.07518        -0.001324      0.000888     -0.000776
Mn	      4.15037      8.44302     -4.15065         0.001076     -0.000634      0.001716
Ni	      4.14907      2.22909     -2.07639         0.002543      0.031604      0.001135
Ni	      4.15102      6.21385     -2.07464        -0.002354     -0.032075     -0.000528
O	      4.14924      4.22149     -2.07549         0.000221     -0.000281     -0.000388
O	      2.07587      6.53314     -2.07467        -0.003058      0.050735     -0.001449
O	      4.14915      1.90916     -4.15137         0.000516     -0.049925      0.000291
O	      2.07381      4.22105     -4.15057        -0.000038      0.000418     -0.001263
O	      4.15081      8.35877     -2.07548        -0.001826      0.054992      0.001523
O	      4.15098      6.53318     -4.15007        -0.002146      0.050731      0.000254
O	      4.14972      0.08411     -2.07554         0.001626     -0.054745     -0.000808
O	      2.07375      1.90946     -2.07638         0.001298     -0.050745      0.001358
