# total energy = -77.06165402 eV
 
CRYSTAL
PRIMVEC
2.082962 4.188412 2.126023 
2.063344 -4.171453 2.111847 
4.161012 0.002640 -4.252369 
PRIMCOORD
16 1
Li	      0.09929      0.00069     -0.06454         0.202353      0.012338      0.060551
Li	      2.13418      2.14566     -0.00157         0.270167     -0.160944      0.016354
Li	      2.14043     -0.00133     -2.00946        -0.124147      0.023382     -0.094764
Li	      2.17571     -2.03331      0.04337        -0.023305     -0.217913     -0.085058
Ni	      4.26786      2.14730     -2.17862         0.370541     -0.736603      0.594677
Ni	      2.14700      0.00835      2.14952         1.149150      0.143674     -0.987707
Ni	      4.23766      0.00735      0.01581        -0.335080      0.105100      0.209982
Ni	      4.25796     -2.13677     -2.18594         0.184073      0.710598      0.368439
O	      4.37129     -2.02460     -0.06701         0.093426      0.509445     -0.483972
O	      2.27294     -0.05194      0.01406         0.568711      0.047948      0.380850
O	      4.27280      2.04377     -0.17274         0.293273     -0.429709     -0.414313
O	      2.21578     -2.02654      2.23197        -0.869147      0.561495      0.264118
O	      4.11205      0.06864      2.15223        -0.481796      0.055752     -0.543611
O	      4.40520     -0.01161     -2.21135        -0.177191     -0.112752      0.587909
O	      2.11782      2.04102      2.12611        -0.638144     -0.503557      0.484145
O	      6.24482      0.03086      0.01676        -0.482885     -0.008252     -0.357601
