# total energy = -76.82499124 eV
 
CRYSTAL
PRIMVEC
2.093123 4.208843 2.136394 
2.073409 -4.191801 2.122149 
4.181310 0.002653 -4.273112 
PRIMCOORD
16 1
Li	      0.10026      0.00069     -0.06517         0.235192      0.017446      0.081819
Li	      2.15505      2.16665     -0.00158         0.317136     -0.185792      0.019723
Li	      2.18169     -0.00125     -2.00833        -0.132677      0.029087     -0.116236
Li	      2.20720     -2.03267      0.05422        -0.025081     -0.246456     -0.093286
Ni	      4.30960      2.16829     -2.19993         0.404855     -0.840862      0.667063
Ni	      2.16799      0.00844      2.17054         1.298858      0.158786     -1.119224
Ni	      4.27911      0.00742      0.01596        -0.365996      0.117548      0.228551
Ni	      4.29960     -2.15766     -2.20731         0.194470      0.817790      0.410183
O	      4.41404     -2.04440     -0.06766         0.125164      0.594417     -0.554686
O	      2.29517     -0.05245      0.01420         0.653545      0.050682      0.451136
O	      4.31459      2.06376     -0.17443         0.367163     -0.499680     -0.478144
O	      2.25785     -2.04635      2.23295        -1.018132      0.656830      0.319048
O	      4.15227      0.06931      2.17328        -0.557908      0.058907     -0.640471
O	      4.44828     -0.01172     -2.23298        -0.196039     -0.127487      0.689002
O	      2.15893      2.06099      2.12606        -0.738457     -0.587765      0.577517
O	      6.30589      0.03116      0.01693        -0.562093     -0.013451     -0.441994
