# total energy = -76.55080389 eV
 
CRYSTAL
PRIMVEC
2.103284 4.229274 2.146765 
2.083474 -4.212150 2.132450 
4.201607 0.002666 -4.293856 
PRIMCOORD
16 1
Li	      0.10123      0.00070     -0.06580         0.268603      0.020202      0.104511
Li	      2.17602      2.18774     -0.00160         0.362266     -0.210909      0.020097
Li	      2.22324     -0.00118     -2.00711        -0.142176      0.035454     -0.137731
Li	      2.23889     -2.03192      0.06517        -0.027607     -0.272458     -0.105281
Ni	      4.35154      2.18940     -2.22134         0.425867     -0.927242      0.731200
Ni	      2.18910      0.00852      2.19166         1.436850      0.169846     -1.233321
Ni	      4.32075      0.00749      0.01612        -0.382612      0.128529      0.248602
Ni	      4.34145     -2.17866     -2.22880         0.195809      0.909042      0.455277
O	      4.45700     -2.06429     -0.06832         0.163495      0.669591     -0.619379
O	      2.31751     -0.05296      0.01434         0.725422      0.054961      0.509022
O	      4.35658      2.08384     -0.17612         0.442388     -0.560339     -0.537207
O	      2.30022     -2.06625      2.23384        -1.153254      0.743834      0.367178
O	      4.19268      0.06998      2.19443        -0.624236      0.058569     -0.727895
O	      4.49157     -0.01184     -2.25471        -0.223761     -0.139196      0.781936
O	      2.20034      2.08106      2.12591        -0.820850     -0.664879      0.666600
O	      6.36726      0.03146      0.01709        -0.646203     -0.015006     -0.523608
