# total energy = -76.24218742 eV
 
CRYSTAL
PRIMVEC
2.113445 4.249706 2.157135 
2.093539 -4.232498 2.142752 
4.221905 0.002679 -4.314599 
PRIMCOORD
16 1
Li	      0.10222      0.00071     -0.06644         0.303934      0.024603      0.122173
Li	      2.19710      2.20892     -0.00161         0.405354     -0.229495      0.022329
Li	      2.26510     -0.00111     -2.00578        -0.147818      0.043363     -0.161170
Li	      2.27079     -2.03107      0.07622        -0.033146     -0.296729     -0.113995
Ni	      4.39369      2.21061     -2.24286         0.437533     -1.006161      0.785241
Ni	      2.21030      0.00861      2.21289         1.556113      0.176618     -1.333026
Ni	      4.36260      0.00756      0.01628        -0.393955      0.137217      0.267665
Ni	      4.38350     -2.19976     -2.25038         0.192026      0.993668      0.490151
O	      4.50017     -2.08429     -0.06898         0.200569      0.733965     -0.674115
O	      2.33995     -0.05347      0.01448         0.790992      0.058792      0.561418
O	      4.39877      2.10402     -0.17783         0.516573     -0.610711     -0.585953
O	      2.34289     -2.08625      2.23463        -1.275414      0.824572      0.413153
O	      4.23328      0.07066      2.21569        -0.683072      0.057057     -0.809913
O	      4.53507     -0.01195     -2.27654        -0.249275     -0.154454      0.865652
O	      2.24205      2.10123      2.12566        -0.896924     -0.733178      0.747914
O	      6.42893      0.03177      0.01726        -0.723491     -0.019126     -0.597526
