# total energy = -75.53513348 eV
 
CRYSTAL
PRIMVEC
2.133766 4.290568 2.177877 
2.113669 -4.273195 2.163355 
4.262500 0.002705 -4.356085 
PRIMCOORD
16 1
Li	      0.10419      0.00072     -0.06773         0.387982      0.034303      0.154506
Li	      2.23955      2.25161     -0.00165         0.491115     -0.261671      0.025570
Li	      2.34971     -0.00097     -2.00279        -0.161048      0.051706     -0.208826
Li	      2.33518     -2.02906      0.09863        -0.037649     -0.341160     -0.123599
Ni	      4.47859      2.25332     -2.28620         0.430574     -1.135896      0.853465
Ni	      2.25301      0.00877      2.25565         1.736939      0.186889     -1.498431
Ni	      4.44690      0.00771      0.01659        -0.409709      0.149879      0.304712
Ni	      4.46820     -2.24227     -2.29387         0.170415      1.135861      0.537184
O	      4.58712     -2.12456     -0.07031         0.271113      0.859783     -0.745277
O	      2.38517     -0.05451      0.01476         0.922177      0.064104      0.628931
O	      4.48377      2.14468     -0.18127         0.642224     -0.712360     -0.660864
O	      2.42915     -2.12654      2.23593        -1.481852      0.949886      0.496917
O	      4.31508      0.07203      2.25850        -0.770614      0.052506     -0.936651
O	      4.62271     -0.01218     -2.32054        -0.290163     -0.179064      1.010460
O	      2.32635      2.14186      2.12485        -1.011910     -0.844031      0.891355
O	      6.55315      0.03238      0.01759        -0.889593     -0.010736     -0.729453
