# total energy = -72.65811982 eV
 
CRYSTAL
PRIMVEC
1.923175 3.892805 1.945339 
1.923350 -3.892649 1.944961 
3.853933 -0.000213 -3.897991 
PRIMCOORD
16 1
Li	      1.82826     -3.69227      1.84660        -0.159379     -0.291130      0.382106
Li	      3.65703     -1.84632      1.84512         0.422543     -0.556995      0.913996
Li	      3.65898      3.69669     -0.00455         0.132566      0.487953     -0.111002
Li	      3.66056     -1.84702     -1.85451         0.144414     -0.525152     -1.120399
Ni	      5.48754     -1.84715     -0.00672         3.392876     -3.993369     -0.365666
Ni	      1.82813      0.02366      1.84681        -3.626543      0.849153      2.217777
Ni	      1.82993     -1.84740     -0.00283        -2.564993     -4.258179     -1.380509
Ni	      3.65863     -0.01972     -0.00469         0.704427      2.172851     -0.644841
O	      3.65825     -1.72985     -0.00463        -0.108341     -3.245960     -0.222986
O	      1.92918     -0.10332     -0.01850        -2.983933      3.951332     -2.266685
O	      3.65867      1.70044     -0.00530         0.344332      3.534498     -0.015460
O	      1.82803     -1.69628      1.84782        -0.868006     -3.578901      1.692044
O	      3.55771      0.10770      1.86089         3.818745     -1.173755      0.359609
O	      3.75969      0.10745     -1.87025        -0.855278     -0.787556     -0.762419
O	      1.82860      1.73378      1.84698        -0.871644      3.971662      0.676846
O	      5.38814     -0.10352      0.00948         3.078215      3.443548      0.647589
