# total energy = -73.64384734 eV
 
CRYSTAL
PRIMVEC
1.933297 3.913293 1.955577 
1.933473 -3.913136 1.955197 
3.874216 -0.000214 -3.918507 
PRIMCOORD
16 1
Li	      1.84756     -3.73123      1.86609        -0.139095     -0.254687      0.341683
Li	      3.69563     -1.86581      1.86459         0.353192     -0.483762      0.786281
Li	      3.69760      3.73571     -0.00460         0.120004      0.425267     -0.100204
Li	      3.69919     -1.86652     -1.87409         0.129460     -0.454688     -0.974598
Ni	      5.54546     -1.86664     -0.00679         2.936590     -3.411415     -0.330023
Ni	      1.84742      0.02391      1.86631        -3.100853      0.728321      1.888019
Ni	      1.84924     -1.86689     -0.00286        -2.194934     -3.609353     -1.127482
Ni	      3.69724     -0.01993     -0.00474         0.604435      1.900359     -0.564315
O	      3.69686     -1.74811     -0.00468        -0.080326     -2.727949     -0.200178
O	      1.94954     -0.10440     -0.01869        -2.480986      3.469319     -1.973686
O	      3.69729      1.71838     -0.00536         0.298814      2.990740      0.001017
O	      1.84733     -1.71418      1.86733        -0.747781     -3.070062      1.421081
O	      3.59526      0.10883      1.88053         3.316657     -1.133571      0.099793
O	      3.79936      0.10858     -1.88999        -0.802537     -0.785193     -0.461735
O	      1.84790      1.75208      1.86647        -0.785195      3.399526      0.595131
O	      5.44501     -0.10461      0.00958         2.572556      3.017146      0.599217
