# total energy = -91.29665468 eV
 
CRYSTAL
PRIMVEC
0.000059 2.065761 2.064966 
8.327088 2.110187 -2.109191 
0.005568 4.208972 -4.207382 
PRIMCOORD
16 1
Li	      4.37078      2.13949     -2.13658         0.026080      0.006500     -0.007815
Li	      6.17240      4.22908     -2.16197        -0.004666     -0.088432      0.089043
Li	      8.10575      6.28994     -2.15816         0.064696      0.000441      0.000087
Li	      6.23123      6.27633     -4.20870        -0.019965      0.092415     -0.091493
Mn	      8.23912      2.09679     -2.09552        -0.197531      0.019653     -0.019540
Mn	      2.12245      2.11268     -0.04614         0.017465      0.025600     -0.026017
Ni	      2.13966      4.15431     -2.08675        -0.033664     -0.031368      0.030507
Ni	      4.28704      4.18172     -4.17961        -0.050769      0.031335     -0.031278
O	      6.23246      4.23358     -4.23153         0.135012     -0.004553      0.005194
O	      0.07333      4.31844     -2.25093        -0.093056      0.013174     -0.013375
O	      6.45013      2.12522     -2.12382         0.162407     -0.015103      0.015533
O	      0.12386      1.96287      0.10280        -0.008201     -0.011600      0.011384
O	      1.99234      2.07556     -2.07252        -0.024779     -0.090185      0.092670
O	      4.10376      4.22915     -2.16141         0.123328     -0.103905      0.103692
O	      1.99766      6.27923     -2.14784        -0.054543      0.065236     -0.067275
O	      4.00470      6.25155     -4.18423        -0.041813      0.090790     -0.091316
