# total energy = -74.50565987 eV
 
CRYSTAL
PRIMVEC
1.943419 3.933782 1.965816 
1.943596 -3.933624 1.965434 
3.894500 -0.000215 -3.939022 
PRIMCOORD
16 1
Li	      1.86696     -3.77041      1.88568        -0.151716     -0.241521      0.329480
Li	      3.73443     -1.88540      1.88417         0.311723     -0.372692      0.661238
Li	      3.73642      3.77493     -0.00464         0.120127      0.377295     -0.117382
Li	      3.73803     -1.88611     -1.89376         0.096061     -0.354547     -0.825967
Ni	      5.60367     -1.88624     -0.00686         2.525983     -2.899353     -0.249256
Ni	      1.86682      0.02416      1.88590        -2.685382      0.720107      1.686393
Ni	      1.86865     -1.88649     -0.00289        -1.862427     -2.984704     -0.899702
Ni	      3.73606     -0.02014     -0.00479         0.578827      1.351848     -0.557159
O	      3.73567     -1.76646     -0.00473        -0.001736     -2.436393     -0.166133
O	      1.97001     -0.10550     -0.01889        -2.358019      2.412670     -1.637875
O	      3.73610      1.73642     -0.00542         0.236183      2.764447      0.027393
O	      1.86672     -1.73217      1.88693        -0.624198     -2.624140      1.068785
O	      3.63300      0.10998      1.90027         2.740932     -0.488871      0.798774
O	      3.83925      0.10973     -1.90983        -0.600059     -0.412825     -1.107158
O	      1.86730      1.77047      1.88607        -0.745154      2.854228      0.487756
O	      5.50218     -0.10571      0.00968         2.418856      2.334451      0.500813
