# total energy = -75.88166146 eV
 
CRYSTAL
PRIMVEC
1.963663 3.974759 1.986293 
1.963842 -3.974599 1.985907 
3.935068 -0.000217 -3.980054 
PRIMCOORD
16 1
Li	      1.90605     -3.84936      1.92517        -0.123974     -0.185403      0.255475
Li	      3.81263     -1.92489      1.92363         0.208898     -0.237839      0.447040
Li	      3.81467      3.85398     -0.00474         0.101267      0.271874     -0.096663
Li	      3.81631     -1.92561     -1.93342         0.060841     -0.228694     -0.577741
Ni	      5.72103     -1.92574     -0.00701         1.760418     -1.988134     -0.147008
Ni	      1.90591      0.02466      1.92540        -1.847939      0.558302      1.163348
Ni	      1.90779     -1.92600     -0.00295        -1.247108     -1.999722     -0.584402
Ni	      3.81430     -0.02056     -0.00489         0.420120      0.852339     -0.398907
O	      3.81390     -1.80345     -0.00483         0.003650     -1.692677     -0.113319
O	      2.01126     -0.10771     -0.01929        -1.685061      1.482563     -1.131811
O	      3.81435      1.77279     -0.00553         0.150362      1.974155      0.046279
O	      1.90581     -1.76845      1.92644        -0.422261     -1.810076      0.646040
O	      3.70908      0.11228      1.94007         1.861356     -0.229110      0.784662
O	      3.91965      0.11202     -1.94982        -0.423410     -0.253025     -1.016060
O	      1.90640      1.80755      1.92557        -0.548853      1.946663      0.339272
O	      5.61740     -0.10792      0.00988         1.731695      1.538785      0.383797
