# total energy = -76.81619752 eV
 
CRYSTAL
PRIMVEC
1.983907 4.015735 2.006771 
1.984088 -4.015574 2.006381 
3.975636 -0.000220 -4.021085 
PRIMCOORD
16 1
Li	      1.94556     -3.92914      1.96507        -0.088702     -0.124970      0.169876
Li	      3.89165     -1.96478      1.96349         0.120634     -0.137906      0.267507
Li	      3.89372      3.93385     -0.00484         0.066122      0.176848     -0.067994
Li	      3.89541     -1.96552     -1.97349         0.032804     -0.131859     -0.363038
Ni	      5.83960     -1.96565     -0.00715         1.095285     -1.214984     -0.068542
Ni	      1.94541      0.02518      1.96530        -1.129003      0.366677      0.706479
Ni	      1.94733     -1.96591     -0.00301        -0.740464     -1.204784     -0.339581
Ni	      3.89335     -0.02099     -0.00499         0.272258      0.499623     -0.257317
O	      3.89295     -1.84083     -0.00493        -0.008000     -1.050415     -0.068582
O	      2.05295     -0.10994     -0.01968        -1.059879      0.866479     -0.700450
O	      3.89340      1.80953     -0.00564         0.084226      1.243647      0.044453
O	      1.94531     -1.80510      1.96637        -0.251449     -1.122060      0.357362
O	      3.78596      0.11460      1.98028         1.150687     -0.133125      0.584766
O	      4.00089      0.11435     -1.99023        -0.289559     -0.180424     -0.744285
O	      1.94592      1.84501      1.96547        -0.348719      1.205596      0.215093
O	      5.73383     -0.11016      0.01009         1.093758      0.941656      0.264252
