# total energy = -77.13734963 eV
 
CRYSTAL
PRIMVEC
1.994029 4.036224 2.017009 
1.994211 -4.036062 2.016617 
3.995920 -0.000221 -4.041601 
PRIMCOORD
16 1
Li	      1.96546     -3.96934      1.98517        -0.063318     -0.096423      0.127866
Li	      3.93146     -1.98488      1.98358         0.084040     -0.098663      0.190715
Li	      3.93356      3.97410     -0.00489         0.048465      0.131845     -0.049544
Li	      3.93526     -1.98563     -1.99368         0.025059     -0.092372     -0.265826
Ni	      5.89933     -1.98576     -0.00723         0.794884     -0.873548     -0.045850
Ni	      1.96531      0.02543      1.98540        -0.810987      0.270906      0.503066
Ni	      1.96724     -1.98603     -0.00304        -0.524955     -0.857764     -0.237478
Ni	      3.93318     -0.02120     -0.00504         0.196785      0.347608     -0.187068
O	      3.93277     -1.85966     -0.00498        -0.009286     -0.772882     -0.050430
O	      2.07395     -0.11107     -0.01989        -0.786180      0.622133     -0.525020
O	      3.93323      1.82804     -0.00570         0.061707      0.924784      0.036073
O	      1.96521     -1.82357      1.98649        -0.178608     -0.827930      0.247154
O	      3.82469      0.11577      2.00054         0.841734     -0.101729      0.474439
O	      4.04182      0.11551     -2.01059        -0.232669     -0.143843     -0.593260
O	      1.96582      1.86389      1.98558        -0.261364      0.889585      0.157339
O	      5.79248     -0.11129      0.01019         0.814693      0.678291      0.217826
