# total energy = -77.37134468 eV
 
CRYSTAL
PRIMVEC
2.004151 4.056712 2.027248 
2.004334 -4.056550 2.026854 
4.016203 -0.000222 -4.062117 
PRIMCOORD
16 1
Li	      1.98547     -4.00974      2.00538        -0.042599     -0.067200      0.084623
Li	      3.97148     -2.00508      2.00377         0.053770     -0.061052      0.120735
Li	      3.97359      4.01455     -0.00494         0.030132      0.088845     -0.033096
Li	      3.97531     -2.00584     -2.01397         0.015611     -0.060122     -0.173606
Ni	      5.95937     -2.00597     -0.00730         0.517593     -0.561745     -0.022933
Ni	      1.98532      0.02569      2.00561        -0.518066      0.183132      0.317461
Ni	      1.98727     -2.00624     -0.00307        -0.331792     -0.539558     -0.149619
Ni	      3.97321     -0.02142     -0.00509         0.120597      0.215966     -0.120420
O	      3.97280     -1.87859     -0.00503        -0.003367     -0.524564     -0.033692
O	      2.09506     -0.11219     -0.02009        -0.536743      0.417096     -0.367075
O	      3.97326      1.84665     -0.00576         0.041043      0.630823      0.022749
O	      1.98522     -1.84213      2.00670        -0.114389     -0.566812      0.152195
O	      3.86362      0.11695      2.02090         0.577173     -0.093678      0.353393
O	      4.08296      0.11669     -2.03106        -0.189059     -0.116800     -0.432386
O	      1.98583      1.88286      2.00579        -0.175456      0.602842      0.103448
O	      5.85144     -0.11242      0.01030         0.555553      0.452829      0.178223
