# total energy = -77.61954758 eV
 
CRYSTAL
PRIMVEC
2.034516 4.118178 2.057964 
2.034702 -4.118013 2.057564 
4.077055 -0.000225 -4.123664 
PRIMCOORD
16 1
Li	      0.01139     -0.01415      0.00904         0.019662      0.015905     -0.038985
Li	      2.05803      2.05172      0.00739        -0.016883      0.025055     -0.051224
Li	      2.06040      0.01895     -2.06306        -0.013419     -0.027796      0.012321
Li	      4.09669     -2.06708     -2.07546        -0.006106      0.025055      0.076713
Ni	      4.10663      2.05079     -2.06509        -0.236598      0.251027      0.011955
Ni	      2.04593      0.02648      2.06685         0.223298     -0.074606     -0.131589
Ni	      2.04794     -2.06750     -0.00316         0.138443      0.247897      0.058503
Ni	      4.09453     -0.02207     -0.00525        -0.053350     -0.092494      0.055187
O	      4.09410     -1.93594     -0.00518        -0.004542      0.016270      0.016954
O	      2.15902     -0.11562     -0.02070         0.038171     -0.040927      0.018802
O	      4.09458      1.90303     -0.00594        -0.015841     -0.065416     -0.020097
O	      2.04583     -1.89838      2.06798         0.051681      0.036322     -0.053147
O	      3.98158      0.12052      2.08260        -0.058983     -0.114032     -0.022789
O	      4.20762      0.12025     -2.09307        -0.100452     -0.090384      0.062754
O	      2.04646      1.94035      2.06703         0.091429     -0.060743     -0.050474
O	      6.03010     -0.11585      0.01061        -0.056509     -0.051132      0.055115
