# total energy = -77.57535332 eV
 
CRYSTAL
PRIMVEC
2.044638 4.138666 2.068202 
2.044825 -4.138500 2.067800 
4.097339 -0.000226 -4.144180 
PRIMCOORD
16 1
Li	      0.02167     -0.03488      0.01942         0.039535      0.043045     -0.077944
Li	      2.08873      2.05159      0.01775        -0.034344      0.050079     -0.098794
Li	      2.09112      0.03972     -2.07334        -0.028595     -0.067224      0.025537
Li	      4.13755     -2.08770     -2.09617        -0.015169      0.045627      0.154389
Ni	      4.15777      2.05066     -2.07540        -0.460110      0.480443      0.015363
Ni	      2.06634      0.02674      2.08746         0.427735     -0.157408     -0.245622
Ni	      2.06837     -2.08812     -0.00319         0.257999      0.462884      0.108373
Ni	      4.13537     -0.02229     -0.00530        -0.095654     -0.167549      0.102967
O	      4.13494     -1.95526     -0.00523        -0.008089      0.136708      0.028143
O	      2.18056     -0.11677     -0.02091         0.175779     -0.156969      0.120415
O	      4.13542      1.92201     -0.00600        -0.030403     -0.236455     -0.031620
O	      2.06624     -1.91731      2.08860         0.100948      0.185538     -0.101434
O	      4.02130      0.12173      2.10338        -0.213687     -0.123005     -0.131911
O	      4.24959      0.12145     -2.11395        -0.088561     -0.089530      0.215028
O	      2.06688      1.95970      2.08765         0.181369     -0.228707     -0.103189
O	      6.09025     -0.11700      0.01071        -0.208752     -0.177479      0.020300
