# total energy = -92.19399754 eV
 
CRYSTAL
PRIMVEC
-0.000026 2.075006 2.074683 
4.116526 -4.268483 4.268001 
4.078934 4.250846 -4.250411 
PRIMCOORD
16 1
Li	      4.16168      4.13702      0.01122        -0.006332     -0.004124      0.003809
Li	      2.12883     -0.18084      2.25339        -0.011890     -0.000459      0.003054
Li	      4.10797      1.95636      2.19178        -0.026129     -0.012848      0.012824
Li	      6.04427      0.06968      2.00443         0.015462      0.016050     -0.016490
Mn	      8.17017      2.05007      2.09860        -0.008154     -0.045328      0.045249
Mn	      2.15629      2.11241     -0.03869         0.089930     -0.005655      0.005945
Ni	      6.02962      2.12098     -0.04737        -0.039545     -0.032422      0.032249
Ni	      4.05139      0.04598      4.10203         0.042734     -0.042385      0.043371
O	      6.13492      4.13102      0.01728        -0.104797      0.100250     -0.101705
O	      6.29409      2.11680      2.03185         0.090313     -0.085052      0.084801
O	      4.19120     -2.25292      4.32619         0.063704     -0.053963      0.054701
O	      2.02202      4.05175      0.09667         0.086448     -0.051576      0.051436
O	      4.10530      4.40730     -2.33290        -0.003743      0.034314     -0.034725
O	      1.96903      2.21492      1.93384        -0.010428      0.030027     -0.030059
O	      3.97814      2.10214     -0.02839        -0.185695      0.002633     -0.002876
O	      4.12526     -0.07306      2.14617         0.008123      0.150538     -0.151584
