# total energy = -77.47708022 eV
 
CRYSTAL
PRIMVEC
2.054760 4.159155 2.078441 
2.054948 -4.158988 2.078037 
4.117623 -0.000228 -4.164696 
PRIMCOORD
16 1
Li	      0.03206     -0.05582      0.02990         0.057209      0.066951     -0.115792
Li	      2.11964      2.05136      0.02821        -0.048347      0.070903     -0.143155
Li	      2.12205      0.06070     -2.08363        -0.041499     -0.103158      0.037403
Li	      4.17862     -2.10842     -2.11697        -0.023901      0.064653      0.225367
Ni	      4.20921      2.05043     -2.08571        -0.681504      0.697933      0.018243
Ni	      2.08685      0.02701      2.10818         0.614029     -0.239580     -0.345486
Ni	      2.08890     -2.10884     -0.00323         0.368296      0.656865      0.146559
Ni	      4.17641     -0.02251     -0.00535        -0.133423     -0.233252      0.144137
O	      4.17598     -1.97467     -0.00529        -0.006441      0.236232      0.043675
O	      2.20220     -0.11794     -0.02112         0.292405     -0.258494      0.210338
O	      4.17646      1.94109     -0.00605        -0.041831     -0.385243     -0.040737
O	      2.08674     -1.93634      2.10933         0.143610      0.308791     -0.139099
O	      4.06121      0.12293      2.12425        -0.343792     -0.131505     -0.234835
O	      4.29177      0.12266     -2.13493        -0.087957     -0.086115      0.362076
O	      2.08739      1.97915      2.10837         0.276995     -0.377835     -0.152555
O	      6.15070     -0.11817      0.01082        -0.343848     -0.287149     -0.016138
