# total energy = -77.33005526 eV
 
CRYSTAL
PRIMVEC
2.064882 4.179643 2.088680 
2.065071 -4.179475 2.088274 
4.137907 -0.000229 -4.185211 
PRIMCOORD
16 1
Li	      0.04255     -0.07696      0.04048         0.073294      0.093786     -0.151776
Li	      2.15075      2.05104      0.03878        -0.055752      0.088574     -0.183496
Li	      2.15319      0.08190     -2.09392        -0.052830     -0.143173      0.045117
Li	      4.21989     -2.12924     -2.13788        -0.032967      0.080396      0.293153
Ni	      4.26095      2.05009     -2.09602        -0.888886      0.887904      0.015582
Ni	      2.10746      0.02727      2.12900         0.785028     -0.321817     -0.430381
Ni	      2.10953     -2.12967     -0.00326         0.464140      0.831316      0.175167
Ni	      4.21766     -0.02274     -0.00541        -0.168673     -0.283465      0.184945
O	      4.21723     -1.99417     -0.00534        -0.011994      0.320654      0.058184
O	      2.22395     -0.11910     -0.02132         0.387158     -0.352130      0.293809
O	      4.21771      1.96026     -0.00611        -0.054310     -0.516244     -0.043936
O	      2.10735     -1.95546      2.13017         0.184575      0.413110     -0.172646
O	      4.10132      0.12415      2.14524        -0.449300     -0.132926     -0.329839
O	      4.33416      0.12387     -2.15602        -0.095736     -0.079193      0.503133
O	      2.10801      1.99870      2.12919         0.374247     -0.500371     -0.198659
O	      6.21144     -0.11934      0.01093        -0.457993     -0.386421     -0.058356
