# total energy = -76.90947761 eV
 
CRYSTAL
PRIMVEC
2.085126 4.220620 2.109157 
2.085317 -4.220451 2.108747 
4.178474 -0.000231 -4.226243 
PRIMCOORD
16 1
Li	      0.06383     -0.11985      0.06195         0.109268      0.154333     -0.216680
Li	      2.21357      2.05007      0.06022        -0.061566      0.122023     -0.244531
Li	      2.21605      0.12489     -2.11450        -0.067521     -0.224337      0.059578
Li	      4.30304     -2.17120     -2.18000        -0.047384      0.110998      0.420039
Ni	      4.36535      2.04911     -2.11665        -1.281183      1.213256      0.003545
Ni	      2.14899      0.02781      2.17095         1.087761     -0.475840     -0.559287
Ni	      2.15110     -2.17164     -0.00332         0.605709      1.126907      0.202666
Ni	      4.30076     -0.02318     -0.00551        -0.224855     -0.369850      0.247261
O	      4.30032     -2.03346     -0.00545        -0.014555      0.444637      0.084143
O	      2.26778     -0.12145     -0.02175         0.537377     -0.505528      0.443461
O	      4.30082      1.99889     -0.00624        -0.074631     -0.740374     -0.036357
O	      2.14888     -1.99399      2.17214         0.262554      0.562458     -0.222449
O	      4.18213      0.12660      2.18751        -0.609830     -0.124962     -0.501604
O	      4.41955      0.12631     -2.19850        -0.137491     -0.045875      0.756964
O	      2.14954      2.03808      2.17115         0.575392     -0.710196     -0.289196
O	      6.33383     -0.12169      0.01115        -0.659046     -0.537647     -0.147554
