# total energy = -76.64226981 eV
 
CRYSTAL
PRIMVEC
2.095248 4.241108 2.119395 
2.095440 -4.240938 2.118984 
4.198758 -0.000232 -4.246759 
PRIMCOORD
16 1
Li	      0.07463     -0.14160      0.07284         0.121762      0.189467     -0.248949
Li	      2.24528      2.04944      0.07109        -0.064309      0.136969     -0.272017
Li	      2.24779      0.14669     -2.12480        -0.073353     -0.271076      0.062258
Li	      4.34491     -2.19233     -2.20122        -0.054980      0.126067      0.475367
Ni	      4.41801      2.04846     -2.12696        -1.458414      1.343957      0.001879
Ni	      2.16990      0.02808      2.19208         1.218297     -0.546284     -0.605357
Ni	      2.17203     -2.19277     -0.00336         0.659946      1.247076      0.206059
Ni	      4.34262     -0.02341     -0.00557        -0.245676     -0.409139      0.272553
O	      4.34217     -2.05325     -0.00550        -0.014898      0.495183      0.093071
O	      2.28984     -0.12263     -0.02196         0.596888     -0.565853      0.513860
O	      4.34267      2.01834     -0.00630        -0.086967     -0.835863     -0.026613
O	      2.16979     -2.01340      2.19328         0.292380      0.616388     -0.240828
O	      4.22283      0.12783      2.20879        -0.654230     -0.114458     -0.577981
O	      4.46257      0.12754     -2.21990        -0.166771     -0.029225      0.870307
O	      2.17046      2.05792      2.19228         0.680998     -0.792111     -0.333978
O	      6.39548     -0.12287      0.01125        -0.750672     -0.591099     -0.189631
