# total energy = -76.34293013 eV
 
CRYSTAL
PRIMVEC
2.105370 4.261597 2.129634 
2.105563 -4.261426 2.129220 
4.219042 -0.000233 -4.267274 
PRIMCOORD
16 1
Li	      0.08552     -0.16357      0.08384         0.136917      0.224425     -0.272468
Li	      2.27720      2.04870      0.08206        -0.063901      0.150798     -0.292054
Li	      2.27973      0.16870     -2.13508        -0.074906     -0.320189      0.067307
Li	      4.38700     -2.21356     -2.22254        -0.062187      0.140167      0.530400
Ni	      4.47097      2.04772     -2.13728        -1.631207      1.462995     -0.006585
Ni	      2.19092      0.02836      2.21331         1.337085     -0.616470     -0.635701
Ni	      2.19307     -2.21401     -0.00339         0.703382      1.347583      0.199616
Ni	      4.38468     -0.02364     -0.00562        -0.261418     -0.440099      0.292115
O	      4.38423     -2.07313     -0.00555        -0.013358      0.544441      0.099008
O	      2.31202     -0.12381     -0.02217         0.649918     -0.619632      0.577072
O	      4.38474      2.03789     -0.00636        -0.097454     -0.922276     -0.009015
O	      2.19081     -2.03290      2.21452         0.321471      0.652440     -0.253770
O	      4.26373      0.12907      2.23019        -0.689532     -0.098255     -0.647119
O	      4.50579      0.12878     -2.24140        -0.203212     -0.011622      0.974795
O	      2.19148      2.07785      2.21351         0.787894     -0.865894     -0.378794
O	      6.45742     -0.12406      0.01136        -0.839492     -0.628414     -0.244807
