# total energy = -75.65653416 eV
 
CRYSTAL
PRIMVEC
2.125614 4.302574 2.150111 
2.125808 -4.302401 2.149694 
4.259610 -0.000235 -4.308306 
PRIMCOORD
16 1
Li	      0.10761     -0.20809      0.10613         0.162642      0.318296     -0.321256
Li	      2.34164      2.04692      0.10432        -0.056381      0.172247     -0.310003
Li	      2.34422      0.21333     -2.15567        -0.081145     -0.431819      0.069790
Li	      4.47177     -2.25633     -2.26549        -0.070186      0.156292      0.619740
Ni	      4.57780      2.04592     -2.15790        -1.937584      1.645914     -0.029220
Ni	      2.23325      0.02890      2.25608         1.545157     -0.741241     -0.664043
Ni	      2.23545     -2.25679     -0.00345         0.742058      1.506527      0.180679
Ni	      4.46940     -0.02409     -0.00573        -0.276749     -0.499911      0.320723
O	      4.46895     -2.11320     -0.00566        -0.011073      0.638777      0.111704
O	      2.35670     -0.12621     -0.02260         0.748359     -0.696489      0.682152
O	      4.46946      2.07727     -0.00648        -0.124755     -1.073259      0.037934
O	      2.23314     -2.07218      2.25731         0.358241      0.701513     -0.277122
O	      4.34612      0.13156      2.27328        -0.736160     -0.063194     -0.776080
O	      4.59285      0.13127     -2.28470        -0.264028      0.023700      1.172936
O	      2.23383      2.11800      2.25628         1.018769     -0.999820     -0.470337
O	      6.58219     -0.12646      0.01158        -1.017164     -0.657530     -0.347594
