# total energy = -73.32052267 eV
 
CRYSTAL
PRIMVEC
1.940894 3.933890 1.931022 
3.895912 -3.940357 -0.001347 
3.890422 -0.006507 -3.857754 
PRIMCOORD
16 1
Li	      1.85145      3.68561      1.81181        -0.208491      0.301631      0.222260
Li	      1.86906      1.87392      0.00907        -0.672401      0.438529      0.644483
Li	      1.84470      0.01403     -1.80029        -0.833690      0.092543     -0.591732
Li	      1.85742     -1.86398     -0.01157        -0.720701     -0.764405      0.136237
Ni	      7.41230     -1.89833     -1.86493         2.287080     -2.124187     -1.408319
Ni	      3.71186     -0.00030      0.00529         0.345048      0.382682      3.280324
Ni	      3.72429     -1.88827     -1.82553        -1.246686     -2.791991     -1.791411
Ni	      5.58746     -0.00005     -1.84736         0.601150      1.145416     -2.206041
O	      3.71971     -1.71995     -0.01620         0.098373     -3.389287      1.358346
O	      5.46828      0.01582     -0.07383         2.740966     -0.445655      3.036878
O	      1.99328      0.02582      0.08904        -4.238483     -0.123793     -0.658638
O	      3.76328      1.72435     -0.03193        -0.414514      3.647863      2.062418
O	      5.55769     -1.74054     -1.84900        -0.130792     -2.566519     -0.580170
O	      7.46631     -0.06176     -1.97397         2.692384      1.848160      0.369458
O	      3.66688     -0.00299     -1.72811        -1.126174      1.197869     -3.075462
O	      5.52965      1.74377     -1.78328         0.826931      3.151144     -0.798631
