# total energy = -91.44646711 eV
 
CRYSTAL
PRIMVEC
4.185435 0.000194 -0.000188 
-2.092437 4.153541 -6.183346 
-2.092560 4.098155 2.024616 
PRIMCOORD
16 1
Li	      2.09321      2.08667     -0.08548        -0.000126      0.031600     -0.052202
Li	      0.00070      2.06549     -2.17380         0.002594     -0.003534     -0.028046
Li	     -2.09079      4.14455     -2.10476        -0.000353     -0.031365      0.035236
Li	      0.00228      6.13089     -2.04245        -0.001369     -0.008165      0.049627
Mn	     -2.09108      4.17662     -6.16312         0.000336      0.077439     -0.162202
Mn	      0.00119      4.13816     -0.13233        -0.000562      0.064447     -0.110839
Ni	      0.00222      4.13545     -4.01452        -0.000061      0.011366      0.101121
Ni	     -2.09055      6.21679     -4.11251        -0.001307     -0.056784     -0.009749
O	     -2.09016      6.26832     -2.25243        -0.001631     -0.089276      0.269100
O	      2.09391      4.10586      0.09205         0.002027     -0.044655      0.138440
O	      0.00208      6.30234     -4.11642        -0.001237      0.131718     -0.009454
O	      0.00153      4.06805      1.96251         0.001288      0.193645      0.053428
O	     -2.09047      4.25645     -4.21169        -0.002188     -0.205797     -0.112075
O	      2.09384      1.86427     -2.08415        -0.001983     -0.008582      0.012532
O	      0.00110      4.03582     -1.99595         0.003312      0.029008      0.032685
O	      0.00132      2.02692      0.14184         0.001260     -0.091063     -0.207603
