# total energy = -93.14163660 eV
 
CRYSTAL
PRIMVEC
-2.075812 4.131645 -2.072949 
2.049553 4.105211 2.046535 
2.101919 0.013185 -6.218502 
PRIMCOORD
16 1
Li	      0.08546      4.13150     -4.23953         0.029456      0.003247     -0.015768
Li	      2.03344      6.18500     -4.13112        -0.004436      0.000296      0.005292
Li	      1.99953      4.13091     -6.13847        -0.026050      0.001134      0.013973
Li	      2.08559      2.06704     -4.14721         0.005063      0.001398     -0.014486
Mn	      4.11689      4.12067     -4.13564        -0.039029     -0.004940      0.028999
Mn	     -0.00203      6.18549     -2.09867         0.003237      0.002372     -0.009117
Ni	      0.01525      2.06866     -2.08935        -0.012350     -0.000913      0.014784
Ni	      2.09768      4.12140     -2.12145        -0.019115     -0.007292      0.022490
O	      0.00655      4.14194     -6.36970         0.116682     -0.003051     -0.049125
O	      1.91460      6.15018     -2.05704        -0.054537      0.116360     -0.120844
O	      2.23095      4.12556     -4.15081         0.050235      0.001713     -0.133485
O	      2.03717      4.01152      0.05170        -0.001585     -0.080287      0.090028
O	      2.03020      2.09086     -1.94408         0.128024     -0.115870      0.080224
O	      0.02111      6.30438     -0.13242        -0.119545      0.024596     -0.040489
O	     -0.07991      4.22835     -2.06285        -0.082660      0.085758      0.009000
O	      0.10909      1.93645     -0.04607         0.026611     -0.024520      0.118523
