# total energy = -74.26308877 eV
 
CRYSTAL
PRIMVEC
1.951056 3.954487 1.941132 
3.916310 -3.960987 -0.001354 
3.910791 -0.006541 -3.877952 
PRIMCOORD
16 1
Li	      1.87089      3.72431      1.83083        -0.191954      0.265281      0.190392
Li	      1.88869      1.89359      0.00917        -0.571187      0.373166      0.554135
Li	      1.86407      0.01417     -1.81919        -0.708347      0.083845     -0.491358
Li	      1.87692     -1.88355     -0.01170        -0.615916     -0.652187      0.116825
Ni	      7.49012     -1.91826     -1.88451         1.945620     -1.805436     -1.231322
Ni	      3.75084     -0.00030      0.00535         0.272353      0.326145      2.764645
Ni	      3.76340     -1.90809     -1.84469        -1.013844     -2.343061     -1.484208
Ni	      5.64612     -0.00004     -1.86675         0.524058      0.981420     -1.830536
O	      3.75877     -1.73801     -0.01637         0.062019     -2.865307      1.131680
O	      5.52569      0.01599     -0.07461         2.313530     -0.409461      2.561492
O	      2.01421      0.02610      0.08997        -3.617811     -0.109142     -0.595821
O	      3.80279      1.74245     -0.03226        -0.413854      3.103000      1.786723
O	      5.61604     -1.75881     -1.86842        -0.087382     -2.153543     -0.493980
O	      7.54470     -0.06241     -1.99469         2.344938      1.546531      0.334950
O	      3.70538     -0.00302     -1.74626        -0.973053      0.991912     -2.604938
O	      5.58771      1.76208     -1.80200         0.730829      2.666837     -0.708680
