# total energy = -75.74018689 eV
 
CRYSTAL
PRIMVEC
1.971380 3.995679 1.961352 
3.957105 -4.002248 -0.001369 
3.951528 -0.006610 -3.918347 
PRIMCOORD
16 1
Li	      1.91007      3.80230      1.86917        -0.157646      0.184801      0.130187
Li	      1.92824      1.93325      0.00936        -0.387901      0.251607      0.388187
Li	      1.90311      0.01447     -1.85728        -0.490214      0.062477     -0.321666
Li	      1.91622     -1.92300     -0.01194        -0.432953     -0.449647      0.083948
Ni	      7.64697     -1.95843     -1.92397         1.333100     -1.241258     -0.893450
Ni	      3.82939     -0.00031      0.00546         0.161612      0.230538      1.863724
Ni	      3.84221     -1.94805     -1.88332        -0.626928     -1.562949     -0.954963
Ni	      5.76437     -0.00005     -1.90585         0.380606      0.689845     -1.190486
O	      3.83748     -1.77441     -0.01671         0.015783     -1.955628      0.752268
O	      5.64141      0.01632     -0.07617         1.575480     -0.336317      1.735404
O	      2.05639      0.02664      0.09186        -2.512985     -0.078050     -0.457534
O	      3.88242      1.77894     -0.03294        -0.395096      2.143897      1.280342
O	      5.73365     -1.79565     -1.90754        -0.014331     -1.452403     -0.344498
O	      7.70270     -0.06372     -2.03647         1.702109      1.041533      0.267183
O	      3.78298     -0.00308     -1.78283        -0.701531      0.645460     -1.782630
O	      5.70472      1.79898     -1.83974         0.550894      1.826094     -0.556015
