# total energy = -76.29482637 eV
 
CRYSTAL
PRIMVEC
1.981541 4.016275 1.971462 
3.977502 -4.022878 -0.001376 
3.971897 -0.006644 -3.938545 
PRIMCOORD
16 1
Li	      1.92982      3.84160      1.88849        -0.133707      0.147130      0.104371
Li	      1.94817      1.95323      0.00946        -0.307672      0.200926      0.315472
Li	      1.92278      0.01462     -1.87648        -0.393970      0.053097     -0.245816
Li	      1.93603     -1.94287     -0.01206        -0.350857     -0.358385      0.068092
Ni	      7.72601     -1.97867     -1.94386         1.055422     -0.990491     -0.735968
Ni	      3.86897     -0.00031      0.00551         0.119501      0.189464      1.469261
Ni	      3.88192     -1.96819     -1.90279        -0.463146     -1.224505     -0.732007
Ni	      5.82394     -0.00005     -1.92554         0.312661      0.560239     -0.927740
O	      3.87715     -1.79275     -0.01688        -0.000244     -1.559605      0.587778
O	      5.69972      0.01649     -0.07696         1.251189     -0.298958      1.376211
O	      2.07764      0.02692      0.09281        -2.022785     -0.067323     -0.390431
O	      3.92255      1.79733     -0.03328        -0.366747      1.721793      1.053791
O	      5.79291     -1.81421     -1.92726         0.010910     -1.159155     -0.276861
O	      7.78231     -0.06437     -2.05751         1.403958      0.827138      0.237609
O	      3.82208     -0.00311     -1.80125        -0.579834      0.497405     -1.424787
O	      5.76368      1.81757     -1.85875         0.465321      1.461230     -0.478976
