# total energy = -77.32658111 eV
 
CRYSTAL
PRIMVEC
2.012027 4.078064 2.001792 
4.038695 -4.084768 -0.001397 
4.033003 -0.006746 -3.999138 
PRIMCOORD
16 1
Li	      1.98965      3.96071      1.94705        -0.053986      0.047600      0.025804
Li	      2.00858      2.01379      0.00975        -0.095786      0.073711      0.125183
Li	      1.98239      0.01508     -1.93466        -0.148796      0.026526     -0.070165
Li	      1.99606     -2.00311     -0.01244        -0.132215     -0.124860      0.020994
Ni	      7.96557     -2.04002     -2.00413         0.341890     -0.355192     -0.292656
Ni	      3.98893     -0.00032      0.00569         0.030082      0.071862      0.499204
Ni	      4.00228     -2.02921     -1.96179        -0.094139     -0.380867     -0.198575
Ni	      6.00452     -0.00005     -1.98525         0.122045      0.208082     -0.303073
O	      3.99736     -1.84833     -0.01741        -0.005970     -0.584360      0.196336
O	      5.87645      0.01700     -0.07935         0.466077     -0.180667      0.520746
O	      2.14206      0.02775      0.09568        -0.777543     -0.030522     -0.218624
O	      4.04417      1.85306     -0.03431        -0.238261      0.647113      0.434964
O	      5.97252     -1.87046     -1.98702         0.022961     -0.469595     -0.094247
O	      8.02361     -0.06637     -2.12131         0.600997      0.328852      0.159467
O	      3.94059     -0.00321     -1.85710        -0.258442      0.155098     -0.536331
O	      5.94239      1.87393     -1.91638         0.221087      0.567218     -0.269028
