# total energy = -77.48765315 eV
 
CRYSTAL
PRIMVEC
2.022188 4.098661 2.011902 
4.059092 -4.105398 -0.001404 
4.053372 -0.006780 -4.019335 
PRIMCOORD
16 1
Li	      2.00980      4.00082      1.96676        -0.018863      0.017308      0.002617
Li	      2.02892      2.03418      0.00985        -0.036680      0.039681      0.070534
Li	      2.00247      0.01523     -1.95425        -0.078774      0.016770     -0.022182
Li	      2.01627     -2.02340     -0.01256        -0.069397     -0.056600      0.006807
Ni	      8.04623     -2.06068     -2.02442         0.137006     -0.179371     -0.162261
Ni	      4.02932     -0.00033      0.00574         0.012212      0.042442      0.238698
Ni	      4.04281     -2.04976     -1.98165        -0.004175     -0.156291     -0.059959
Ni	      6.06532     -0.00005     -2.00535         0.062237      0.109955     -0.143555
O	      4.03784     -1.86705     -0.01759        -0.000476     -0.329681      0.094040
O	      5.93596      0.01717     -0.08015         0.258188     -0.140291      0.299283
O	      2.16376      0.02803      0.09665        -0.427100     -0.020080     -0.174658
O	      4.08513      1.87182     -0.03466        -0.181139      0.353507      0.258148
O	      6.03301     -1.88940     -2.00714         0.017578     -0.299645     -0.047648
O	      8.10486     -0.06705     -2.14279         0.351411      0.202326      0.136894
O	      3.98049     -0.00324     -1.87591        -0.169672      0.068700     -0.296019
O	      6.00257      1.89290     -1.93579         0.147643      0.331270     -0.200739
