# total energy = -77.57952076 eV
 
CRYSTAL
PRIMVEC
2.042512 4.139853 2.032123 
4.099887 -4.146659 -0.001418 
4.094109 -0.006848 -4.059731 
PRIMCOORD
16 1
Li	      2.05040      4.08164      2.00650         0.061600     -0.040331     -0.042310
Li	      2.06991      2.07528      0.01005         0.074085     -0.018314     -0.024767
Li	      2.04292      0.01554     -1.99373         0.041082     -0.005249      0.060380
Li	      2.05700     -2.06427     -0.01282         0.049542      0.062169     -0.026088
Ni	      4.10889      2.04434     -2.06390        -0.233854      0.130422      0.068926
Ni	      4.11072     -0.00033      0.00586         0.001240     -0.001703     -0.200130
Ni	      4.12448     -2.09117     -2.02169         0.130739      0.214680      0.154420
Ni	      6.18785     -0.00005     -2.04586        -0.049554     -0.062939      0.131648
O	      4.11941     -1.90477     -0.01794         0.022802      0.049548     -0.090511
O	      6.05587      0.01752     -0.08177        -0.038540     -0.041177     -0.055545
O	      2.20747      0.02860      0.09861         0.110858      0.003949     -0.127830
O	      4.16766      1.90963     -0.03536        -0.030376     -0.099150     -0.061129
O	      6.15488     -1.92756     -2.04768        -0.026593     -0.035367      0.039506
O	      8.26859     -0.06840     -2.18608        -0.119055     -0.027025      0.139745
O	      4.06090     -0.00331     -1.91380        -0.001962     -0.071247      0.081231
O	      6.12383      1.93114     -1.97490         0.007986     -0.058266     -0.047547
