# total energy = -77.53050029 eV
 
CRYSTAL
PRIMVEC
2.052674 4.160449 2.042233 
4.120284 -4.167289 -0.001425 
4.114478 -0.006882 -4.079928 
PRIMCOORD
16 1
Li	      2.07085      4.12236      2.02651         0.111356     -0.064892     -0.063563
Li	      2.09055      2.09597      0.01015         0.122131     -0.041022     -0.064189
Li	      2.06330      0.01569     -2.01362         0.089411     -0.018171      0.097771
Li	      2.07752     -2.08487     -0.01295         0.102465      0.119168     -0.043744
Ni	      4.17037      2.04400     -2.08450        -0.392532      0.265775      0.171206
Ni	      4.15172     -0.00034      0.00592         0.001505     -0.020517     -0.392920
Ni	      4.16562     -2.11203     -2.04186         0.179842      0.361487      0.239541
Ni	      6.24958     -0.00005     -2.06627        -0.101752     -0.142698      0.255024
O	      4.16050     -1.92377     -0.01812         0.042963      0.135041     -0.168849
O	      6.11628      0.01770     -0.08258        -0.097509      0.023321     -0.210288
O	      2.22948      0.02889      0.09959         0.260794      0.016331     -0.106521
O	      4.20923      1.92868     -0.03571         0.062706     -0.224928     -0.206518
O	      6.21628     -1.94679     -2.06811        -0.055701      0.065049      0.076890
O	      8.35107     -0.06908     -2.20788        -0.344517     -0.126662      0.188954
O	      4.10141     -0.00334     -1.93289         0.077551     -0.124902      0.195186
O	      6.18491      1.95040     -1.99460        -0.058714     -0.222379      0.032020
