# total energy = -92.17208389 eV
 
CRYSTAL
PRIMVEC
4.079315 -0.000003 -0.000006 
-0.000002 4.141520 -4.134230 
0.000004 6.237082 2.092046 
PRIMCOORD
16 1
Li	      4.07906      4.23136      0.08182         0.000178     -0.012361      0.004796
Li	      2.03935      6.23783     -0.01478        -0.000125      0.035673      0.005728
Li	      4.07902      8.27721     -0.03167        -0.000192      0.007799      0.018034
Li	      2.03937      8.25797     -2.05748         0.000118     -0.015324     -0.040229
Mn	      4.07903      6.13919      2.01740         0.000025     -0.076671     -0.054047
Mn	      2.03938      2.14150     -0.03967         0.000011      0.088387     -0.077663
Ni	      2.03938      4.13376     -2.02596         0.000159     -0.010071      0.013364
Ni	      4.07904      6.29638     -1.95542        -0.000388      0.039364      0.027601
O	      2.03939      3.98713     -0.02380        -0.000172     -0.078605      0.235183
O	      4.07903      6.20735      0.10816         0.000323     -0.015563      0.162338
O	      2.03938      6.17889     -2.16893         0.000396      0.131427     -0.034312
O	      4.07903      8.39646     -2.02792         0.000089      0.195644     -0.000376
O	      2.03937      2.14712     -1.90291        -0.000007     -0.207338      0.052442
O	      4.07904      4.19982     -2.21421        -0.000353     -0.072329     -0.089149
O	      2.03937      0.10987      0.01050        -0.000007     -0.030225     -0.139589
O	      4.07904      1.94922      0.04709        -0.000056      0.020193     -0.084120
