# total energy = -77.42917511 eV
 
CRYSTAL
PRIMVEC
2.062835 4.181046 2.052343 
4.140682 -4.187919 -0.001432 
4.134847 -0.006916 -4.100126 
PRIMCOORD
16 1
Li	      0.02857     -0.01777     -0.00572         0.168912     -0.083838     -0.083712
Li	      2.11130      2.11678      0.01025         0.167890     -0.059582     -0.101506
Li	      2.08378      0.01585     -2.03360         0.132100     -0.033315      0.131505
Li	      2.09814     -2.10556     -0.01308         0.152753      0.171201     -0.056563
Ni	      4.23226      2.04356     -2.10519        -0.536952      0.391752      0.261911
Ni	      4.19293     -0.00034      0.00598         0.014111     -0.039504     -0.568055
Ni	      4.20697     -2.13299     -2.06212         0.214179      0.488201      0.311252
Ni	      6.31161     -0.00005     -2.08678        -0.149555     -0.215500      0.366678
O	      4.20180     -1.94286     -0.01830         0.062884      0.183293     -0.233855
O	      6.17699      0.01787     -0.08341        -0.111887      0.092510     -0.357458
O	      2.25161      0.02917      0.10058         0.359127      0.029691     -0.090972
O	      4.25100      1.94782     -0.03607         0.160820     -0.311868     -0.344502
O	      6.27797     -1.96612     -2.08864        -0.093583      0.149839      0.111309
O	      8.43396     -0.06977     -2.22980        -0.565780     -0.221288      0.253805
O	      4.14212     -0.00337     -1.95208         0.147691     -0.167600      0.284906
O	      6.24630      1.96976     -2.01439        -0.122711     -0.373991      0.115258
