# total energy = -77.28003628 eV
 
CRYSTAL
PRIMVEC
2.072997 4.201642 2.062453 
4.161079 -4.208549 -0.001439 
4.155215 -0.006950 -4.120324 
PRIMCOORD
16 1
Li	      0.03907      0.00275      0.00438         0.230414     -0.106118     -0.102891
Li	      2.13215      2.13769      0.01035         0.212273     -0.076813     -0.133190
Li	      2.10436      0.01601     -2.05369         0.167795     -0.048558      0.162205
Li	      2.11887     -2.12635     -0.01320         0.204041      0.218782     -0.072499
Ni	      4.29456      2.04301     -2.12599        -0.673835      0.503360      0.344981
Ni	      4.23434     -0.00034      0.00604         0.026389     -0.056846     -0.733247
Ni	      4.24852     -2.15406     -2.08249         0.230863      0.599160      0.375151
Ni	      6.37394     -0.00005     -2.10739        -0.194269     -0.283286      0.468473
O	      4.24330     -1.96205     -0.01848         0.087840      0.216400     -0.288450
O	      6.23799      0.01805     -0.08423        -0.112826      0.163006     -0.494636
O	      2.27385      0.02946      0.10157         0.433817      0.045368     -0.079056
O	      4.29299      1.96706     -0.03642         0.261935     -0.382463     -0.465512
O	      6.33998     -1.98553     -2.10927        -0.128093      0.227421      0.136918
O	      8.51726     -0.07046     -2.25182        -0.779076     -0.306779      0.322343
O	      4.18303     -0.00341     -1.97136         0.215454     -0.197841      0.363915
O	      6.30799      1.98922     -2.03429        -0.182722     -0.514793      0.195496
