# total energy = -77.08700041 eV
 
CRYSTAL
PRIMVEC
2.083159 4.222238 2.072563 
4.181477 -4.229179 -0.001446 
4.175584 -0.006984 -4.140521 
PRIMCOORD
16 1
Li	      0.04966      0.02348      0.01459         0.302593     -0.123278     -0.121099
Li	      2.15311      2.15870      0.01045         0.250840     -0.093164     -0.160262
Li	      2.12504      0.01616     -2.07387         0.202582     -0.065960      0.192951
Li	      2.13969     -2.14725     -0.01333         0.252729      0.260419     -0.089863
Ni	      4.35726      2.04236     -2.14689        -0.793151      0.607377      0.417557
Ni	      4.27595     -0.00035      0.00610         0.041519     -0.074749     -0.887499
Ni	      4.29027     -2.17522     -2.10295         0.240157      0.690689      0.427280
Ni	      6.43659     -0.00005     -2.12810        -0.240449     -0.340830      0.559889
O	      4.28500     -1.98133     -0.01866         0.113602      0.253521     -0.334470
O	      6.29930      0.01822     -0.08506        -0.104082      0.229118     -0.626423
O	      2.29620      0.02975      0.10257         0.492869      0.058702     -0.067743
O	      4.33518      1.98639     -0.03678         0.354627     -0.454469     -0.574242
O	      6.40229     -2.00505     -2.12999        -0.166426      0.303922      0.161950
O	      8.60096     -0.07115     -2.27395        -0.987420     -0.377916      0.385510
O	      4.22414     -0.00344     -1.99073         0.278009     -0.217324      0.437913
O	      6.36999      2.00877     -2.05428        -0.237999     -0.656057      0.278551
