# total energy = -75.93987592 eV
 
CRYSTAL
PRIMVEC
2.123806 4.304623 2.113003 
4.263066 -4.311700 -0.001474 
4.257059 -0.007121 -4.221312 
PRIMCOORD
16 1
Li	      0.09306      0.10839      0.05639         0.623964     -0.184180     -0.165614
Li	      2.23795      2.24376      0.01086         0.373964     -0.111251     -0.235039
Li	      2.20878      0.01680     -2.15559         0.316520     -0.134774      0.291482
Li	      2.22400     -2.23187     -0.01386         0.432289      0.392697     -0.153728
Ni	      4.61215      2.03871     -2.23152        -1.172248      0.916413      0.597877
Ni	      4.44445     -0.00036      0.00633         0.114452     -0.118099     -1.367001
Ni	      4.45934     -2.26094     -2.18582         0.213961      0.948754      0.553355
Ni	      6.69022     -0.00005     -2.21196        -0.388566     -0.531928      0.859767
O	      4.45385     -2.05941     -0.01939         0.215573      0.401740     -0.415695
O	      6.54752      0.01894     -0.08841        -0.144040      0.420507     -1.062068
O	      2.38668      0.03092      0.10661         0.726579      0.094344     -0.050192
O	      4.50601      2.06467     -0.03823         0.676833     -0.740173     -0.869230
O	      6.65457     -2.08406     -2.21393        -0.290795      0.552683      0.219350
O	      8.93988     -0.07395     -2.36356        -1.755393     -0.561732      0.580446
O	      4.39059     -0.00358     -2.06918         0.495940     -0.198632      0.666202
O	      6.62100      2.08792     -2.13523        -0.439034     -1.146368      0.550089
