# total energy = -74.03066631 eV
 
CRYSTAL
PRIMVEC
-0.000148 4.147702 0.000111 
3.827817 -0.000085 3.828361 
3.827898 -0.000162 -3.828443 
PRIMCOORD
16 1
Li	      0.02887      0.00185      0.02813        -0.606216     -0.205020     -0.002897
Li	      1.80763      1.99144      0.02948        -0.577054      0.096101     -0.063848
Li	      1.80918      3.98157      1.80947        -0.215453      0.266259      0.526332
Li	      3.70375      1.99138     -1.86516         0.175394      0.211113     -0.621571
Ni	      3.66303      0.00028     -0.01185         0.974229     -0.835466      0.860635
Ni	      5.52402      1.99159     -0.01186         3.674278      0.540663     -3.013505
Ni	      3.66318      1.99113      1.84920        -0.411262      0.623964      1.079494
Ni	      1.84945      0.00045     -1.82621        -3.203368     -0.696923     -3.356655
O	      1.92938      3.98159     -0.09251        -2.803969      0.277099      1.884088
O	      3.76257      1.99081      0.08745        -2.008430      0.666787     -2.576108
O	      3.76242      0.00057      1.75021         0.012909     -0.877630      2.689663
O	      5.42480      1.99096      1.74936         3.002680      0.576635      2.396648
O	      3.58296      0.00026     -1.74541         2.310341     -0.288188     -3.218159
O	      1.92966      1.99133      1.92988        -3.537432      0.120559      0.101153
O	      5.42450      0.00013      0.08742         2.883755     -0.698814     -0.348645
O	      3.58288      1.99151      3.58286         0.329598      0.222863      3.663375
