# total energy = -74.86450844 eV
 
CRYSTAL
PRIMVEC
-0.000149 4.169304 0.000112 
3.847753 -0.000085 3.848301 
3.847835 -0.000163 -3.848383 
PRIMCOORD
16 1
Li	      0.02917      0.00187      0.02842        -0.506618     -0.175963     -0.001608
Li	      1.82651      2.01224      0.02979        -0.487618      0.087771     -0.037513
Li	      1.82807      4.02315      1.82837        -0.181486      0.220336      0.431527
Li	      3.74243      2.01217     -1.88464         0.154686      0.166876     -0.530550
Ni	      3.70129      0.00029     -0.01198         0.845631     -0.699529      0.721387
Ni	      5.58172      2.01239     -0.01198         3.092518      0.428504     -2.529846
Ni	      3.70144      2.01192      1.86851        -0.358558      0.502612      0.922633
Ni	      1.86877      0.00045     -1.84528        -2.682035     -0.619017     -2.837137
O	      1.94953      4.02318     -0.09347        -2.381543      0.287587      1.610955
O	      3.80187      2.01161      0.08837        -1.689011      0.540792     -2.162236
O	      3.80172      0.00058      1.76849        -0.003100     -0.717393      2.246879
O	      5.48145      2.01176      1.76763         2.518495      0.477206      2.021751
O	      3.62038      0.00027     -1.76364         1.942364     -0.240658     -2.698196
O	      1.94981      2.01213      1.95003        -2.965230      0.121179      0.060600
O	      5.48115      0.00013      0.08834         2.412378     -0.567350     -0.303600
O	      3.62030      2.01231      3.62028         0.289125      0.187046      3.084954
