# total energy = -75.56276308 eV
 
CRYSTAL
PRIMVEC
-0.000150 4.190907 0.000113 
3.867690 -0.000086 3.868240 
3.867772 -0.000164 -3.868323 
PRIMCOORD
16 1
Li	      0.02948      0.00189      0.02872        -0.414954     -0.144078      0.000263
Li	      1.84549      2.03315      0.03010        -0.403381      0.081015     -0.016804
Li	      1.84706      4.06495      1.84736        -0.146374      0.178199      0.347882
Li	      3.78131      2.03308     -1.90422         0.128775      0.129841     -0.442882
Ni	      3.73974      0.00029     -0.01210         0.718611     -0.573370      0.583854
Ni	      5.63971      2.03330     -0.01211         2.544627      0.324241     -2.088471
Ni	      3.73989      2.03282      1.88793        -0.305740      0.392961      0.770244
Ni	      1.88818      0.00046     -1.86445        -2.195830     -0.534044     -2.350932
O	      1.96978      4.06498     -0.09444        -1.974678      0.280737      1.354904
O	      3.84137      2.03250      0.08929        -1.409164      0.430208     -1.782649
O	      3.84121      0.00059      1.78686        -0.024669     -0.572776      1.843758
O	      5.53840      2.03266      1.78600         2.078009      0.387181      1.686267
O	      3.65799      0.00027     -1.78196         1.606057     -0.195934     -2.221597
O	      1.97007      2.03303      1.97030        -2.438646      0.112388      0.023630
O	      5.53810      0.00013      0.08926         1.981246     -0.450374     -0.259421
O	      3.65791      2.03321      3.65790         0.256111      0.153806      2.551954
