# total energy = -76.59748355 eV
 
CRYSTAL
PRIMVEC
-0.000151 4.234112 0.000114 
3.907563 -0.000086 3.908119 
3.907646 -0.000165 -3.908202 
PRIMCOORD
16 1
Li	      0.03009      0.00193      0.02931        -0.252690     -0.089881      0.003610
Li	      1.88374      2.07529      0.03072        -0.249868      0.058549      0.005157
Li	      1.88534      4.14919      1.88565        -0.090487      0.108255      0.199050
Li	      3.85968      2.07521     -1.94368         0.087845      0.070277     -0.286141
Ni	      3.81725      0.00030     -0.01236         0.452032     -0.348338      0.348530
Ni	      5.75659      2.07544     -0.01236         1.577771      0.167579     -1.290360
Ni	      3.81740      2.07495      1.92705        -0.205760      0.219774      0.494909
Ni	      1.92731      0.00047     -1.90310        -1.330456     -0.355766     -1.444781
O	      2.01061      4.14922     -0.09640        -1.258143      0.224785      0.890336
O	      3.92099      2.07463      0.09114        -0.893570      0.246213     -1.111460
O	      3.92082      0.00060      1.82390        -0.063701     -0.332171      1.134001
O	      5.65319      2.07478      1.82301         1.291375      0.225980      1.071630
O	      3.73380      0.00027     -1.81889         1.019381     -0.117895     -1.382738
O	      2.01090      2.07517      2.01113        -1.517123      0.085969     -0.043522
O	      5.65287      0.00014      0.09111         1.229279     -0.256031     -0.194738
O	      3.73372      2.07535      3.73370         0.204114      0.092702      1.606516
