# total energy = -76.95233822 eV
 
CRYSTAL
PRIMVEC
-0.000152 4.255715 0.000114 
3.927499 -0.000087 3.928058 
3.927583 -0.000166 -3.928142 
PRIMCOORD
16 1
Li	      0.03040      0.00194      0.02961        -0.180561     -0.065128      0.004822
Li	      1.90301      2.09652      0.03104        -0.184017      0.045072      0.011601
Li	      1.90463      4.19164      1.90494        -0.069048      0.080709      0.135792
Li	      3.89917      2.09645     -1.96357         0.067739      0.045069     -0.212513
Ni	      3.85630      0.00030     -0.01248         0.322188     -0.248404      0.237904
Ni	      5.81548      2.09667     -0.01249         1.144645      0.110455     -0.936171
Ni	      3.85645      2.09618      1.94677        -0.154259      0.149866      0.368061
Ni	      1.94703      0.00048     -1.92257        -0.946936     -0.263104     -1.034183
O	      2.03118      4.19167     -0.09739        -0.941043      0.182185      0.685476
O	      3.96110      2.09585      0.09207        -0.673085      0.168754     -0.820419
O	      3.96093      0.00060      1.84255        -0.078698     -0.232015      0.833507
O	      5.71102      2.09601      1.84166         0.954250      0.158268      0.807960
O	      3.77200      0.00028     -1.83750         0.770844     -0.084160     -1.026950
O	      2.03147      2.09640      2.03170        -1.121308      0.063817     -0.075973
O	      5.71070      0.00014      0.09204         0.905940     -0.177318     -0.168858
O	      3.77192      2.09658      3.77190         0.183348      0.065935      1.189943
