# total energy = -77.47768547 eV
 
CRYSTAL
PRIMVEC
-0.000155 4.342125 0.000117 
4.007245 -0.000089 4.007816 
4.007331 -0.000169 -4.007901 
PRIMCOORD
16 1
Li	      0.03165      0.00203      0.03082         0.068046      0.015015      0.013827
Li	      1.98108      2.18252      0.03231         0.036990     -0.013434      0.006992
Li	      1.98292      0.02146      1.98297         0.000214     -0.018620     -0.051799
Li	      4.05912      2.18244     -2.04411        -0.002841     -0.007971      0.045322
Ni	      4.01449      0.00031     -0.01299        -0.112919      0.067350     -0.084769
Ni	      6.05404      2.18268     -0.01300        -0.289796     -0.025793      0.236456
Ni	      4.01465      2.18217      2.02663         0.020208     -0.032760     -0.072426
Ni	      2.02690      0.00049     -2.00143         0.292856      0.078387      0.321954
O	      2.11465      0.02149     -0.10150         0.034546     -0.060888      0.019698
O	      4.12358      2.18183      0.09585         0.019897     -0.035354      0.050570
O	      4.12342      0.00063      1.91814        -0.138072      0.052503     -0.059450
O	      5.94529      2.18199      1.91721        -0.090540     -0.036167     -0.058157
O	      3.92673      0.00029     -1.91288        -0.002354      0.021977      0.051309
O	      2.11480      2.18239      2.11505         0.076823     -0.026876     -0.193714
O	      5.94496      0.00014      0.09581        -0.075290      0.043184     -0.117840
O	      3.92665      2.18258      3.92663         0.162233     -0.020551     -0.107973
