# total energy = -77.43085040 eV
 
CRYSTAL
PRIMVEC
-0.000156 4.363728 0.000117 
4.027182 -0.000089 4.027755 
4.027268 -0.000170 -4.027841 
PRIMCOORD
16 1
Li	      0.03196      0.00205      0.03113         0.119031      0.029479      0.013457
Li	      2.00084      2.20429      0.03263         0.076290     -0.029697      0.001376
Li	      2.00269      0.04339      2.00275         0.010856     -0.040441     -0.085761
Li	      4.09961      2.20422     -2.06450        -0.016577     -0.014312      0.102787
Ni	      4.05453      0.00031     -0.01312        -0.190641      0.125973     -0.120751
Ni	      6.11442      2.20445     -0.01313        -0.585058     -0.039202      0.463594
Ni	      4.05469      2.20394      2.04684         0.056458     -0.063295     -0.172461
Ni	      2.04712      0.00050     -2.02140         0.515646      0.153573      0.591410
O	      2.13575      0.04341     -0.10251         0.190184     -0.128524     -0.111466
O	      4.16472      2.20359      0.09680         0.161011     -0.064389      0.187649
O	      4.16455      0.00064      1.93727        -0.146311      0.099549     -0.195211
O	      6.00459      2.20375      1.93633        -0.258723     -0.060139     -0.228635
O	      3.96590      0.00029     -1.93196        -0.143863      0.042261      0.225680
O	      2.13590      2.20416      2.13615         0.273191     -0.051916     -0.218809
O	      6.00427      0.00014      0.09677        -0.231244      0.079808     -0.116294
O	      3.96582      2.20435      3.96579         0.169749     -0.038728     -0.336564
