# total energy = -77.32639337 eV
 
CRYSTAL
PRIMVEC
-0.000156 4.385331 0.000118 
4.047119 -0.000090 4.047694 
4.047205 -0.000171 -4.047781 
PRIMCOORD
16 1
Li	      0.03228      0.00206      0.03144         0.168361      0.045356      0.010815
Li	      2.02070      2.22617      0.03296         0.112646     -0.044955     -0.000787
Li	      2.02257      0.06552      2.02263         0.022940     -0.060202     -0.111518
Li	      4.14030      2.22609     -2.08499        -0.028189     -0.018435      0.165891
Ni	      4.09478      0.00032     -0.01325        -0.261401      0.175319     -0.155523
Ni	      6.17511      2.22633     -0.01326        -0.840208     -0.045586      0.671669
Ni	      4.09494      2.22581      2.06715         0.084746     -0.084043     -0.250182
Ni	      2.06744      0.00050     -2.04146         0.721583      0.223083      0.829466
O	      2.15695      0.06556     -0.10353         0.322287     -0.200469     -0.234694
O	      4.20606      2.22546      0.09776         0.284567     -0.088285      0.290250
O	      4.20588      0.00064      1.95650        -0.150581      0.139219     -0.306139
O	      6.06420      2.22563      1.95555        -0.394071     -0.081135     -0.385978
O	      4.00527      0.00029     -1.95114        -0.279342      0.059568      0.368451
O	      2.15710      2.22604      2.15735         0.426255     -0.078552     -0.246535
O	      6.06386      0.00015      0.09773        -0.369088      0.109300     -0.114247
O	      4.00518      2.22623      4.00516         0.179496     -0.050183     -0.530938
