# total energy = -77.17650877 eV
 
CRYSTAL
PRIMVEC
-0.000157 4.406933 0.000118 
4.067055 -0.000090 4.067634 
4.067142 -0.000172 -4.067721 
PRIMCOORD
16 1
Li	      0.03260      0.00209      0.03176         0.215417      0.058936      0.007130
Li	      2.04066      2.24815      0.03328         0.143518     -0.060899     -0.002987
Li	      2.04255      0.08788      2.04261         0.033869     -0.075143     -0.132558
Li	      4.18119      2.24808     -2.10559        -0.030244     -0.018889      0.224001
Ni	      4.13522      0.00032     -0.01338        -0.310301      0.214688     -0.170776
Ni	      6.23610      2.24832     -0.01339        -1.058658     -0.046329      0.834094
Ni	      4.13538      2.24779      2.08757         0.087496     -0.100521     -0.307704
Ni	      2.08785      0.00051     -2.06162         0.906965      0.281467      1.050119
O	      2.17825      0.08791     -0.10455         0.400102     -0.263482     -0.356113
O	      4.24760      2.24744      0.09873         0.389342     -0.107900      0.334911
O	      4.24742      0.00065      1.97582        -0.147977      0.171160     -0.371343
O	      6.12408      2.24761      1.97486        -0.461399     -0.091289     -0.515222
O	      4.04482      0.00029     -1.97040        -0.409952      0.074246      0.466338
O	      2.17841      2.24803      2.17865         0.513670     -0.105753     -0.272793
O	      6.12375      0.00015      0.09869        -0.461616      0.131257     -0.107798
O	      4.04474      2.24822      4.04472         0.189767     -0.061550     -0.679297
