# total energy = -76.98793002 eV
 
CRYSTAL
PRIMVEC
-0.000158 4.428536 0.000119 
4.086992 -0.000090 4.087573 
4.087079 -0.000173 -4.087661 
PRIMCOORD
16 1
Li	      0.03292      0.00211      0.03206         0.270143      0.069994      0.004479
Li	      2.06071      2.27025      0.03361         0.167189     -0.078015     -0.008751
Li	      2.06262      0.11046      2.06268         0.038200     -0.089590     -0.154351
Li	      4.22228      2.27017     -2.12628        -0.036096     -0.018042      0.283048
Ni	      4.17586      0.00032     -0.01351        -0.356426      0.239625     -0.192072
Ni	      6.29740      2.27042     -0.01352        -1.246351     -0.036103      0.977764
Ni	      4.17603      2.26989      2.10809         0.083797     -0.108829     -0.340435
Ni	      2.10837      0.00051     -2.08188         1.084507      0.328204      1.257063
O	      2.19965      0.11049     -0.10558         0.450578     -0.318982     -0.462934
O	      4.28934      2.26953      0.09970         0.484292     -0.117228      0.361106
O	      4.28917      0.00065      1.99524        -0.147549      0.195200     -0.419097
O	      2.09728      2.26979     -2.09330        -0.508723     -0.087654     -0.633259
O	      4.08458      0.00030     -1.98977        -0.528490      0.089085      0.546881
O	      2.19981      2.27012      2.20006         0.583758     -0.136591     -0.294680
O	      6.18393      0.00015      0.09967        -0.539517      0.144361     -0.109995
O	      4.08449      2.27032      4.08447         0.200687     -0.075436     -0.814768
