# total energy = -76.76501239 eV
 
CRYSTAL
PRIMVEC
-0.000159 4.450138 0.000120 
4.106928 -0.000091 4.107512 
4.107016 -0.000174 -4.107600 
PRIMCOORD
16 1
Li	      0.03324      0.00213      0.03238         0.325121      0.081668      0.004662
Li	      2.08086      2.29245      0.03394         0.189176     -0.092918     -0.013763
Li	      2.08279      0.13324      2.08285         0.040624     -0.101601     -0.170916
Li	      4.26357      2.29237     -2.14707        -0.041537     -0.018005      0.349773
Ni	      4.21670      0.00033     -0.01365        -0.392762      0.255592     -0.214057
Ni	      6.35898      2.29262     -0.01365        -1.419475     -0.019149      1.105006
Ni	      4.21686      2.29208      2.12870         0.076250     -0.111213     -0.375199
Ni	      2.12899      0.00052     -2.10225         1.252798      0.364595      1.447526
O	      2.22117      0.13327     -0.10661         0.501482     -0.366393     -0.541529
O	      4.33129      2.29172      0.10067         0.557029     -0.118927      0.403060
O	      4.33111      0.00066      2.01476        -0.157675      0.210250     -0.469843
O	      2.13783      2.29198     -2.09373        -0.572892     -0.078899     -0.729603
O	      4.12452      0.00030     -2.00923        -0.613620      0.100149      0.620837
O	      2.22133      2.29232      2.22158         0.662870     -0.173592     -0.323237
O	      6.24441      0.00015      0.10064        -0.625116      0.151564     -0.129652
O	      0.01750      2.29261      0.01690         0.217729     -0.083123     -0.963065
