# total energy = -76.50775151 eV
 
CRYSTAL
PRIMVEC
-0.000160 4.471741 0.000120 
4.126865 -0.000091 4.127452 
4.126953 -0.000174 -4.127540 
PRIMCOORD
16 1
Li	      0.03356      0.00215      0.03269         0.389115      0.092250      0.006693
Li	      2.10111      2.31476      0.03427         0.202512     -0.109114     -0.019292
Li	      2.10306      0.15625      2.10312         0.040692     -0.112404     -0.183842
Li	      4.30507      2.31469     -2.16797        -0.047208     -0.013374      0.423342
Ni	      4.25774      0.00033     -0.01378        -0.422821      0.259854     -0.234162
Ni	      6.42087      2.31493     -0.01378        -1.567777      0.004090      1.216096
Ni	      4.25790      2.31440      2.14942         0.070665     -0.111913     -0.396193
Ni	      2.14971      0.00052     -2.12270         1.412664      0.390291      1.630617
O	      2.24278      0.15628     -0.10764         0.530341     -0.411159     -0.607806
O	      4.37345      2.31403      0.10166         0.619234     -0.113898      0.422648
O	      4.37326      0.00067      2.03436        -0.173468      0.218858     -0.518457
O	      2.17867      2.31429     -2.09408        -0.614538     -0.063476     -0.813995
O	      4.16466      0.00031     -2.02879        -0.688920      0.109311      0.673078
O	      2.24294      2.31463      2.24320         0.725989     -0.202019     -0.346737
O	      6.30518      0.00015      0.10162        -0.704487      0.152164     -0.152985
O	      0.03771      2.31493      0.03710         0.228007     -0.089462     -1.099005
