# total energy = -91.51786773 eV
 
CRYSTAL
PRIMVEC
0.000024 2.075551 2.075563 
8.034195 2.118478 -2.118393 
0.005630 4.225679 -4.225680 
PRIMCOORD
16 1
Li	      1.97712      2.11668     -0.04437        -0.008310      0.014266     -0.014302
Li	      6.06116      4.28454     -2.21243         0.022819     -0.010542      0.009251
Li	      7.87467      6.27784     -2.13377        -0.002565     -0.008876      0.010443
Li	      6.06504      6.24626     -4.17425         0.024528      0.006861     -0.007325
Mn	      7.97804      4.20791     -0.05955        -0.040546      0.021977     -0.022145
Mn	      4.09344      4.17545     -0.02745         0.038057      0.000476     -0.001036
Ni	      1.99088      4.18182     -2.10937        -0.066715     -0.031831      0.031984
Ni	      4.06607      6.32095     -2.17304        -0.119875      0.008303     -0.007041
O	      5.96707      6.30702     -2.15920         0.180711      0.003959     -0.006086
O	      8.02166      6.45963     -4.38662        -0.129457      0.041237     -0.040920
O	      6.04577      4.19794     -0.04932         0.006463     -0.006019      0.006487
O	      0.00824      1.95809      0.11484        -0.020062     -0.035250      0.035267
O	      2.16582      4.21132     -0.06339         0.053590     -0.104943      0.105543
O	      4.04408      4.15174     -2.07919         0.129023     -0.089617      0.090050
O	      1.96366      6.25162     -2.10345        -0.083979      0.106203     -0.107088
O	      4.02494      2.15924     -0.08680         0.016317      0.083797     -0.083082
