# total energy = -76.22318284 eV
 
CRYSTAL
PRIMVEC
-0.000160 4.493344 0.000121 
4.146801 -0.000092 4.147391 
4.146890 -0.000175 -4.147480 
PRIMCOORD
16 1
Li	      0.03389      0.00217      0.03301         0.459894      0.100067      0.010882
Li	      2.12146      2.33718      0.03460         0.216484     -0.122547     -0.025311
Li	      2.12343      0.17947      2.12349         0.040654     -0.121021     -0.193827
Li	      4.34676      2.33710     -2.18897        -0.049772     -0.007285      0.502393
Ni	      4.29897      0.00033     -0.01391        -0.445615      0.257339     -0.246756
Ni	      6.48305      2.33735     -0.01392        -1.717135      0.027971      1.327352
Ni	      4.29914      2.33681      2.17024         0.067734     -0.102751     -0.416806
Ni	      2.17054      0.00053     -2.14326         1.557234      0.411624      1.799093
O	      2.26450      0.17950     -0.10869         0.570528     -0.450810     -0.658829
O	      4.41580      2.33644      0.10264         0.679607     -0.104874      0.442796
O	      4.41562      0.00067      2.05406        -0.191633      0.222272     -0.574254
O	      2.21980      2.33671     -2.09432        -0.672182     -0.046450     -0.887939
O	      4.20500      0.00031     -2.04843        -0.744953      0.117502      0.729745
O	      2.26467      2.33705      2.26493         0.793660     -0.235015     -0.380295
O	      6.36625      0.00016      0.10260        -0.809687      0.151355     -0.179993
O	      0.05811      2.33735      0.05750         0.245182     -0.097378     -1.248252
