# total energy = -75.90652655 eV
 
CRYSTAL
PRIMVEC
-0.000161 4.514946 0.000121 
4.166738 -0.000092 4.167331 
4.166827 -0.000176 -4.167420 
PRIMCOORD
16 1
Li	      0.03422      0.00219      0.03333         0.530120      0.109067      0.013017
Li	      2.14191      2.35971      0.03493         0.227713     -0.137675     -0.030500
Li	      2.14389      0.20290      2.14396         0.040245     -0.131988     -0.200191
Li	      4.38866      2.35963     -2.21007        -0.050032      0.000586      0.587871
Ni	      4.34041      0.00033     -0.01405        -0.464209      0.251572     -0.252375
Ni	      6.54554      2.35988     -0.01405        -1.851571      0.048984      1.423287
Ni	      4.34058      2.35933      2.19116         0.064608     -0.094670     -0.443868
Ni	      2.19145      0.00054     -2.16392         1.686196      0.427732      1.945532
O	      2.28633      0.20294     -0.10973         0.620724     -0.491445     -0.693548
O	      4.45836      2.35896      0.10362         0.723923     -0.095218      0.480075
O	      4.45819      0.00068      2.07386        -0.216775      0.222625     -0.640563
O	      2.26123      2.35923     -2.09447        -0.737637     -0.024321     -0.945171
O	      4.24553      0.00031     -2.06818        -0.780600      0.126242      0.795919
O	      2.28650      2.35957      2.28676         0.868388     -0.265821     -0.415319
O	      6.42761      0.00016      0.10359        -0.931281      0.149149     -0.217673
O	      0.07870      2.35987      0.07808         0.270186     -0.094818     -1.406492
