# total energy = -75.56263573 eV
 
CRYSTAL
PRIMVEC
-0.000162 4.536549 0.000122 
4.186674 -0.000093 4.187270 
4.186764 -0.000177 -4.187360 
PRIMCOORD
16 1
Li	      0.03454      0.00221      0.03365         0.606985      0.117509      0.016590
Li	      2.16246      2.38234      0.03527         0.235197     -0.152321     -0.039513
Li	      2.16446      0.22656      2.16453         0.040962     -0.137711     -0.203325
Li	      4.43076      2.38226     -2.23127        -0.052751      0.005221      0.680000
Ni	      4.38205      0.00034     -0.01418        -0.475627      0.239497     -0.256876
Ni	      6.60833      2.38252     -0.01419        -1.979178      0.070655      1.520786
Ni	      4.38221      2.38196      2.21218         0.064151     -0.084007     -0.470797
Ni	      2.21248      0.00054     -2.18468         1.794316      0.437751      2.067912
O	      2.30826      0.22659     -0.11079         0.672847     -0.523845     -0.714665
O	      4.50113      2.38159      0.10462         0.760482     -0.084984      0.519894
O	      4.50095      0.00069      2.09376        -0.238534      0.218759     -0.705070
O	      2.30295      2.38186     -2.09453        -0.810205     -0.001147     -0.989101
O	      4.28625      0.00031     -2.08802        -0.807295      0.135594      0.854815
O	      2.30843      2.38220      2.30869         0.941425     -0.295033     -0.453705
O	      6.48927      0.00015      0.10458        -1.057859      0.147043     -0.259282
O	      0.09949      2.38251      0.09887         0.305084     -0.092980     -1.567661
