# total energy = -72.16502423 eV
 
CRYSTAL
PRIMVEC
3.894310 -0.000688 3.896651 
-0.000710 3.893831 -3.896629 
0.000162 3.893002 3.895800 
PRIMCOORD
16 1
Li	      0.00250      3.70013      3.69679        -1.023517     -0.190691      0.523616
Li	      1.85373      5.55224      3.69971         0.452645      0.918914      0.642856
Li	      1.85347      3.69756      5.54855         0.135879      0.205235      0.755149
Li	      0.00520      1.84637      1.84801        -0.600435     -0.378550     -0.047805
Ni	      0.00073      1.85410     -1.85010        -0.770691     -2.972783     -8.937482
Ni	      1.85024      3.70242      1.85044        -0.524948      0.535568     -2.437961
Ni	      1.85010      1.85144      3.70129        -1.275325     -4.342922      3.469937
Ni	      3.69917      3.70110      3.70226         4.158293      1.946691      3.919277
O	      3.63959      1.91086      3.64705         1.450301     -2.159350      7.077463
O	      3.64431      3.64447      1.90617         1.566317      2.770060     -3.180855
O	      1.90715      1.91226      1.90665        -1.024556     -1.658895     -2.993759
O	      1.79171      3.75517      0.05750         1.178634     -1.048156     -1.648271
O	      0.05571      3.76146      1.79604        -1.713110     -0.876765      1.103514
O	      0.05987      5.49219      0.05558        -1.648070      2.311190     -0.729911
O	      1.90683      3.64718      3.64365        -3.312846      3.147246      1.631581
O	      1.79418      5.49299      1.79509         2.951427      1.793207      0.852653
