# total energy = -73.30679199 eV
 
CRYSTAL
PRIMVEC
3.914806 -0.000692 3.917160 
-0.000714 3.914324 -3.917138 
0.000163 3.913492 3.916304 
PRIMCOORD
16 1
Li	      0.00253      3.73918      3.73581        -0.885177     -0.157973      0.442208
Li	      1.87329      5.61084      3.73875         0.387850      0.795809      0.549636
Li	      1.87303      3.73658      5.60711         0.121806      0.184554      0.651247
Li	      0.00526      1.86585      1.86751        -0.511028     -0.312941     -0.043764
Ni	      0.00074      1.87366     -1.86962        -0.849679     -2.607317     -7.391923
Ni	      1.86976      3.74149      1.86997        -0.464960      0.461738     -2.131337
Ni	      1.86962      1.87098      3.74035        -1.078771     -3.743502      2.978640
Ni	      3.73822      3.74016      3.74134         3.592816      1.635516      3.364505
O	      3.67800      1.93103      3.68554         1.381190     -1.808343      5.698591
O	      3.68277      3.68293      1.92628         1.177143      2.516801     -2.772874
O	      1.92728      1.93245      1.92678        -0.990157     -1.235470     -2.631673
O	      1.81062      3.79480      0.05810         1.092825     -0.991961     -1.230292
O	      0.05629      3.80116      1.81499        -1.277425     -0.864250      1.048675
O	      0.06050      5.55015      0.05617        -1.431424      1.949868     -0.616003
O	      1.92695      3.68567      3.68211        -2.917697      2.803531      1.228857
O	      1.81311      5.55096      1.81403         2.652690      1.373940      0.855507
