# total energy = -74.26929641 eV
 
CRYSTAL
PRIMVEC
3.935303 -0.000695 3.937669 
-0.000718 3.934818 -3.937646 
0.000164 3.933981 3.936808 
PRIMCOORD
16 1
Li	      0.00255      3.77843      3.77502        -0.756658     -0.135791      0.371371
Li	      1.89296      5.66975      3.77801         0.330173      0.679322      0.462410
Li	      1.89270      3.77581      5.66598         0.106720      0.161441      0.551585
Li	      0.00531      1.88544      1.88712        -0.428547     -0.252642     -0.036194
Ni	      0.00075      1.89334     -1.88925        -0.856845     -2.262300     -6.047174
Ni	      1.88939      3.78077      1.88960        -0.402394      0.397692     -1.835910
Ni	      1.88925      1.89063      3.77962        -0.904027     -3.192058      2.532873
Ni	      3.77746      3.77943      3.78062         3.070544      1.370921      2.864960
O	      3.71661      1.95130      3.72423         1.269742     -1.488107      4.506438
O	      3.72143      3.72160      1.94651         0.820761      2.265560     -2.409538
O	      1.94751      1.95273      1.94700        -0.956288     -0.854490     -2.300185
O	      1.82963      3.83464      0.05871         1.007061     -0.937205     -0.852558
O	      0.05689      3.84107      1.83405        -0.884999     -0.851913      0.997383
O	      0.06114      5.60842      0.05676        -1.232410      1.632773     -0.516084
O	      1.94718      3.72436      3.72077        -2.549643      2.477617      0.859697
O	      1.83215      5.60924      1.83308         2.366808      0.989179      0.850927
