# total energy = -75.06378346 eV
 
CRYSTAL
PRIMVEC
3.955799 -0.000699 3.958177 
-0.000721 3.955312 -3.958155 
0.000165 3.954471 3.957313 
PRIMCOORD
16 1
Li	      0.00258      3.81790      3.81445        -0.635515     -0.110811      0.305070
Li	      1.91272      5.72896      3.81746         0.272243      0.570008      0.386140
Li	      1.91247      3.81524      5.72515         0.088808      0.140823      0.462015
Li	      0.00537      1.90513      1.90683        -0.358571     -0.204826     -0.034220
Ni	      0.00076      1.91311     -1.90898        -0.811365     -1.944721     -4.877541
Ni	      1.90912      3.82025      1.90933        -0.336770      0.331363     -1.548810
Ni	      1.90898      1.91037      3.81909        -0.751577     -2.681119      2.119885
Ni	      3.81692      3.81890      3.82010         2.579666      1.145035      2.403411
O	      3.75543      1.97168      3.76312         1.138608     -1.226252      3.489740
O	      3.76030      3.76046      1.96683         0.502003      2.019455     -2.081328
O	      1.96785      1.97312      1.96734        -0.915036     -0.514054     -1.991431
O	      1.84874      3.87469      0.05933         0.925507     -0.877628     -0.516342
O	      0.05748      3.88118      1.85320        -0.530805     -0.830633      0.950758
O	      0.06178      5.66700      0.05736        -1.053173      1.377301     -0.423670
O	      1.96752      3.76326      3.75963        -2.207116      2.164721      0.527471
O	      1.85128      5.66782      1.85222         2.093093      0.641338      0.828852
