# total energy = -75.71495514 eV
 
CRYSTAL
PRIMVEC
3.976295 -0.000703 3.978686 
-0.000725 3.975806 -3.978664 
0.000166 3.974960 3.977817 
PRIMCOORD
16 1
Li	      0.00261      3.85756      3.85408        -0.521790     -0.086263      0.249133
Li	      1.93260      5.78848      3.85713         0.223735      0.467839      0.319705
Li	      1.93234      3.85489      5.78464         0.075377      0.122991      0.380260
Li	      0.00542      1.92493      1.92664        -0.289026     -0.161280     -0.030458
Ni	      0.00077      1.93298     -1.92882        -0.722759     -1.638381     -3.865463
Ni	      1.92896      3.85995      1.92917        -0.274858      0.268200     -1.272992
Ni	      1.92881      1.93022      3.85877        -0.616235     -2.205324      1.734884
Ni	      3.85657      3.85857      3.85979         2.121987      0.942021      1.977541
O	      3.79444      1.99216      3.80222         0.981977     -1.002392      2.650881
O	      3.79936      3.79953      1.98727         0.220163      1.760455     -1.789183
O	      1.98829      1.99363      1.98778        -0.870348     -0.222010     -1.705327
O	      1.86795      3.91494      0.05995         0.836676     -0.813784     -0.223966
O	      0.05808      3.92150      1.87245        -0.225222     -0.790601      0.901573
O	      0.06242      5.72587      0.05795        -0.888370      1.154359     -0.347062
O	      1.98796      3.80236      3.79869        -1.880381      1.864897      0.230974
O	      1.87052      5.72671      1.87146         1.829075      0.339271      0.789499
