# total energy = -76.23928560 eV
 
CRYSTAL
PRIMVEC
3.996792 -0.000706 3.999195 
-0.000729 3.996300 -3.999172 
0.000166 3.995450 3.998321 
PRIMCOORD
16 1
Li	      0.00263      3.89743      3.89392        -0.411778     -0.065485      0.194187
Li	      1.95257      5.84831      3.89699         0.175527      0.363910      0.245041
Li	      1.95231      3.89473      5.84442         0.058497      0.107014      0.307923
Li	      0.00548      1.94482      1.94655        -0.231420     -0.120201     -0.025210
Ni	      0.00078      1.95296     -1.94875        -0.655802     -1.310110     -2.966367
Ni	      1.94890      3.89985      1.94911        -0.206081      0.205586     -0.964417
Ni	      1.94875      1.95017      3.89865        -0.464581     -1.734295      1.353944
Ni	      3.89643      3.89846      3.89968         1.667329      0.728855      1.554525
O	      3.83366      2.01275      3.84152         0.739198     -0.808705      1.938869
O	      3.83863      3.83881      2.00781         0.517605      1.322879     -1.359380
O	      2.00885      2.01423      2.00833        -0.773353     -0.201546     -1.336753
O	      1.88726      3.95541      0.06056         0.627535     -0.623400     -0.463550
O	      0.05868      3.96204      1.89181        -0.501961     -0.566769      0.702465
O	      0.06307      5.78506      0.05855        -0.602128      0.922865     -0.254882
O	      2.00851      3.84166      3.83795        -1.447671      1.454221      0.432793
O	      1.88985      5.78589      1.89081         1.509084      0.325181      0.640812
