# total energy = -92.08451184 eV
 
CRYSTAL
PRIMVEC
-2.039542 4.113701 -2.030707 
2.078057 4.153769 2.071773 
2.069011 -0.021253 -6.162996 
PRIMCOORD
16 1
Li	      0.01646      6.19066     -2.00316        -0.009939      0.002511      0.008629
Li	      2.12984      6.19030     -4.10913        -0.003006      0.001418      0.016377
Li	      2.06375      4.13423     -6.12158        -0.009872     -0.004971      0.019748
Li	      2.06896      2.05899     -4.10211         0.030392      0.000812     -0.021193
Mn	      4.12671      4.13075     -4.06927        -0.005339      0.002920      0.008200
Mn	      0.05939      4.11546     -4.11449         0.037774     -0.005324     -0.041043
Ni	      0.00488      2.05807     -2.02965        -0.032577      0.002164      0.023186
Ni	      2.08066      4.13153     -2.02784         0.012512      0.007437     -0.007802
O	      0.00295      4.09671     -6.08489         0.119129      0.004145      0.074857
O	      0.02298      2.15630     -3.97639         0.008256      0.089064     -0.129019
O	      2.02505      4.13223     -4.06747        -0.064630     -0.007531     -0.122238
O	      2.18387      4.14853      0.00871         0.026562     -0.127880      0.085436
O	      1.95498      1.95918     -2.05100         0.128495     -0.087017     -0.007185
O	      0.14295      6.35686      0.04807        -0.123678      0.010694     -0.002684
O	      0.04839      4.12048     -2.12848        -0.115210      0.119939     -0.031798
O	     -0.00367      1.90671     -0.09515         0.001131     -0.008382      0.126528
