# total energy = -77.00176845 eV
 
CRYSTAL
PRIMVEC
4.037785 -0.000714 4.040212 
-0.000736 4.037287 -4.040189 
0.000168 4.036429 4.039329 
PRIMCOORD
16 1
Li	      0.00269      3.97779      3.97420        -0.220687     -0.031757      0.106825
Li	      1.99283      5.96889      3.97734         0.092496      0.190036      0.133853
Li	      1.99256      3.97503      5.96492         0.029913      0.068735      0.176129
Li	      0.00559      1.98492      1.98669        -0.125879     -0.058444     -0.018233
Ni	      0.00079      1.99323     -1.98893        -0.391090     -0.759838     -1.555038
Ni	      1.98908      3.98025      1.98930        -0.107875      0.111736     -0.496501
Ni	      1.98893      1.99038      3.97904        -0.252435     -0.947060      0.736760
Ni	      3.97677      3.97883      3.98009         0.914344      0.393444      0.846074
O	      3.91270      2.05425      3.92072         0.442133     -0.425689      0.979169
O	      3.91778      3.91795      2.04921         0.381445      0.761829     -0.774377
O	      2.05026      2.05576      2.04973        -0.466122     -0.214956     -0.764423
O	      1.92617      4.03696      0.06181         0.382703     -0.407878     -0.317786
O	      0.05989      4.04373      1.93081        -0.342668     -0.357961      0.454512
O	      0.06436      5.90433      0.05975        -0.356896      0.510616     -0.219392
O	      2.04992      3.92087      3.91708        -0.818940      0.858389      0.275946
O	      1.92881      5.90519      1.92979         0.839559      0.308797      0.436480
