# total energy = -77.24620525 eV
 
CRYSTAL
PRIMVEC
4.058281 -0.000717 4.060721 
-0.000740 4.057781 -4.060698 
0.000169 4.056918 4.059834 
PRIMCOORD
16 1
Li	      0.00271      4.01828      4.01465        -0.139537     -0.017471      0.069386
Li	      2.01311      6.02964      4.01783         0.056622      0.118986      0.085557
Li	      2.01284      4.01549      6.02564         0.018960      0.048131      0.121438
Li	      0.00565      2.00512      2.00691        -0.077118     -0.032626     -0.012532
Ni	      0.00080      2.01352     -2.00917        -0.258625     -0.495991     -0.974269
Ni	      2.00932      4.02076      2.00954        -0.066403      0.069330     -0.305670
Ni	      2.00918      2.01064      4.01954        -0.157535     -0.600761      0.471553
Ni	      4.01724      4.01933      4.02060         0.584227      0.252233      0.537542
O	      3.95253      2.07516      3.96063         0.312970     -0.297835      0.621326
O	      3.95766      3.95783      2.07007         0.310239      0.481500     -0.522005
O	      2.07113      2.07668      2.07060        -0.322440     -0.174431     -0.518679
O	      1.94577      4.07805      0.06244         0.259713     -0.295120     -0.267068
O	      0.06050      4.08488      1.95046        -0.284219     -0.235084      0.337570
O	      0.06502      5.96443      0.06037        -0.261228      0.360526     -0.189428
O	      2.07078      3.96077      3.95695        -0.528797      0.578048      0.220574
O	      1.94845      5.96529      1.94944         0.553172      0.240566      0.324705
