# total energy = -77.40950451 eV
 
CRYSTAL
PRIMVEC
4.078777 -0.000721 4.081230 
-0.000744 4.078275 -4.081206 
0.000170 4.077407 4.080338 
PRIMCOORD
16 1
Li	      0.00274      4.05897      4.05530        -0.068494     -0.007309      0.035577
Li	      2.03350      6.09070      4.05851         0.023328      0.054067      0.039870
Li	      2.03323      4.05615      6.08666         0.006082      0.028016      0.064585
Li	      0.00570      2.02543      2.02723        -0.038256     -0.011755     -0.008941
Ni	      0.00080      2.03391     -2.02952        -0.128410     -0.243153     -0.456630
Ni	      2.02967      4.06148      2.02989        -0.030442      0.032106     -0.139680
Ni	      2.02952      2.03100      4.06024        -0.071150     -0.283144      0.224791
Ni	      4.05792      4.06003      4.06131         0.281761      0.121680      0.253731
O	      3.99255      2.09617      4.00073         0.191820     -0.183670      0.340564
O	      3.99773      3.99791      2.09103         0.221104      0.250558     -0.299531
O	      2.09211      2.09771      2.09157        -0.202144     -0.140448     -0.291639
O	      1.96548      4.11934      0.06307         0.160143     -0.193063     -0.193696
O	      0.06111      4.12625      1.97022        -0.204738     -0.141352      0.220176
O	      0.06568      6.02482      0.06097        -0.163177      0.216573     -0.156269
O	      2.09175      4.00088      3.99702        -0.282110      0.328755      0.163863
O	      1.96818      6.02570      1.96918         0.304681      0.172138      0.203230
