# total energy = -77.51102088 eV
 
CRYSTAL
PRIMVEC
4.119770 -0.000728 4.122247 
-0.000751 4.119263 -4.122224 
0.000172 4.118386 4.121346 
PRIMCOORD
16 1
Li	      0.00262      0.02258      0.01588         0.050917      0.012171     -0.014189
Li	      2.07441      2.09536      0.01915        -0.032850     -0.051188     -0.034229
Li	      2.07413      0.01970      2.08827        -0.016973     -0.008336     -0.042603
Li	      0.00582      2.06634      2.06818         0.027813      0.027819      0.008846
Ni	      0.00082      2.07500     -2.07052         0.120278      0.209631      0.390241
Ni	      2.07068      4.14353      2.07091         0.024152     -0.034078      0.125988
Ni	      2.07052      2.07203      4.14227         0.070952      0.263366     -0.197634
Ni	      0.02013      4.14278      0.02111        -0.242985     -0.105563     -0.240066
O	      4.07321      2.13852      4.08156        -0.044994      0.005319     -0.051529
O	      4.07850      4.07867      2.13327        -0.014236     -0.117915      0.046269
O	      2.13437      2.14009      2.13381        -0.015156      0.002030      0.047658
O	      2.00518      4.20256      0.06435         0.016587     -0.037479      0.048944
O	      0.06234      4.20961      2.01002         0.002711      0.004765      0.009082
O	      0.06700      6.14654      0.06221         0.030357     -0.038086     -0.092063
O	      2.13401      4.08171      4.07776         0.104064     -0.070990     -0.005049
O	      2.00794      6.14743      2.00896        -0.080637     -0.061468      0.000333
