# total energy = -76.95245635 eV
 
CRYSTAL
PRIMVEC
4.201756 -0.000743 4.204282 
-0.000766 4.201238 -4.204258 
0.000175 4.200344 4.203363 
PRIMCOORD
16 1
Li	      0.00273      0.10708      0.10017         0.208539      0.011032     -0.103254
Li	      2.15780      2.26317      0.10357        -0.104145     -0.186564     -0.146992
Li	      2.15750      0.10409      2.25586        -0.054434     -0.071764     -0.263838
Li	      0.00606      2.14940      2.15132         0.120013      0.080402      0.057901
Ni	      0.00085      2.15841     -2.15375         0.508842      0.881763      1.484797
Ni	      2.15391      4.31008      2.15415         0.092011     -0.127556      0.498806
Ni	      2.15375      2.15532      4.30877         0.262966      1.072580     -0.826045
Ni	      0.10456      4.30929      0.10563        -1.014156     -0.436834     -0.980779
O	      0.03519      2.22522      0.04134        -0.423559      0.279197     -0.368095
O	      0.04068      4.24336     -1.98526        -0.515612     -0.539262      0.404784
O	      2.22016      2.22612      2.21959         0.189809      0.328168      0.408556
O	      2.08579      4.37149      0.06693        -0.123411      0.134392      0.658006
O	      0.06485      4.37882      2.09081         0.434161      0.195691     -0.283006
O	      0.06970      6.39361      0.06471         0.360550     -0.461738      0.103401
O	      2.21979      4.24578      4.24168         0.569860     -0.546193     -0.329297
O	      2.08865      6.39454      2.08971        -0.511433     -0.613315     -0.314948
