# total energy = -76.68522427 eV
 
CRYSTAL
PRIMVEC
4.222252 -0.000746 4.224790 
-0.000770 4.221732 -4.224767 
0.000176 4.220834 4.223867 
PRIMCOORD
16 1
Li	      0.00276      0.12871      0.12175         0.234250      0.008700     -0.121113
Li	      2.17890      2.30590      0.12519        -0.116434     -0.207737     -0.170917
Li	      2.17861      0.12569      2.29853        -0.059926     -0.084697     -0.324855
Li	      0.00612      2.17043      2.17236         0.134799      0.094131      0.076681
Ni	      0.00087      2.17951     -2.17481         0.574580      0.995852      1.652609
Ni	      2.17498      4.35224      2.17522         0.097762     -0.147079      0.563698
Ni	      2.17481      2.17639      4.35091         0.289982      1.218945     -0.944590
Ni	      0.12618      4.35144      0.12727        -1.153960     -0.496151     -1.118996
O	      0.05613      2.24699      0.06235        -0.495112      0.333517     -0.376905
O	      0.06168      4.28486     -1.98407        -0.636352     -0.591983      0.445728
O	      2.24187      2.24789      2.24129         0.227126      0.415027      0.447878
O	      2.10618      4.41424      0.06759        -0.132279      0.149111      0.832911
O	      0.06549      4.42165      2.11126         0.541898      0.225164     -0.336157
O	      0.07038      6.45614      0.06534         0.430509     -0.549564      0.156970
O	      2.24150      4.28730      4.28316         0.640467     -0.613345     -0.406404
O	      2.10908      6.45708      2.11015        -0.577310     -0.749889     -0.376540
