# total energy = -76.37629535 eV
 
CRYSTAL
PRIMVEC
4.242748 -0.000750 4.245299 
-0.000774 4.242226 -4.245275 
0.000177 4.241323 4.244372 
PRIMCOORD
16 1
Li	      0.00279      0.15055      0.14354         0.255993      0.002612     -0.139954
Li	      2.20011      2.34893      0.14701        -0.125538     -0.223473     -0.194169
Li	      2.19981      0.14750      2.34150        -0.065208     -0.097751     -0.386494
Li	      0.00617      2.19155      2.19350         0.150427      0.107743      0.096735
Ni	      0.00087      2.20073     -2.19598         0.629140      1.089882      1.790309
Ni	      2.19614      4.39459      2.19639         0.103929     -0.164194      0.622351
Ni	      2.19598      2.19758      4.39325         0.312874      1.350254     -1.051605
Ni	      0.14800      4.39378      0.14912        -1.275883     -0.551413     -1.244757
O	      0.07727      2.26885      0.08357        -0.560496      0.377465     -0.371020
O	      0.08287      4.32656     -1.98277        -0.757889     -0.631066      0.470225
O	      2.26369      2.26976      2.26311         0.261733      0.501181      0.474687
O	      2.12668      4.45720      0.06825        -0.137951      0.161306      1.010762
O	      0.06613      4.46468      2.13181         0.646590      0.252346     -0.380137
O	      0.07106      6.51897      0.06598         0.489435     -0.623951      0.211609
O	      2.26331      4.32903      4.32484         0.694555     -0.668071     -0.486778
O	      2.12960      6.51992      2.13068        -0.621711     -0.882871     -0.421764
