# total energy = -91.27956162 eV
 
CRYSTAL
PRIMVEC
4.086144 -0.000007 -0.000028 
0.000006 4.045415 -4.269259 
-0.000003 6.030983 2.100089 
PRIMCOORD
16 1
Li	      2.04518      2.01295     -0.05679         0.000271     -0.011758     -0.029683
Li	      2.04523      6.12117     -0.12420        -0.000208      0.028067      0.033453
Li	      0.00196      2.00140     -2.10452         0.001085     -0.029366      0.025223
Li	      2.04513      8.04130     -2.02077         0.000532     -0.007945     -0.036483
Mn	      0.00210      0.03487     -0.02840        -0.000147      0.010975     -0.106191
Mn	      0.00211      4.00401     -0.04827        -0.000793     -0.041142      0.107074
Ni	      2.04511      3.99810     -2.14643        -0.000373      0.017700     -0.003134
Ni	      0.00206      6.10698     -2.11222        -0.000313      0.111502      0.033360
O	      2.04516      4.00806     -0.16678        -0.000990      0.004713      0.096338
O	      0.00205      5.94293     -0.01999        -0.000154      0.034690      0.050886
O	      2.04513      5.93671     -2.11928         0.000104      0.136318      0.006103
O	      0.00209      8.14562     -2.37025         0.001051      0.098206     -0.057578
O	      2.04505      2.13021     -2.15864        -0.000875     -0.205802     -0.001955
O	      0.00205      4.05276     -2.05380        -0.000173     -0.105863      0.045257
O	      2.04514      4.04123     -4.13555        -0.000456     -0.004492     -0.111139
O	      0.00206      2.01255      0.09786         0.001439     -0.035802     -0.051529
