# total energy = -76.03178189 eV
 
CRYSTAL
PRIMVEC
4.263245 -0.000753 4.265808 
-0.000777 4.262720 -4.265784 
0.000178 4.261813 4.264876 
PRIMCOORD
16 1
Li	      0.00282      0.17260      0.16553         0.274342     -0.004974     -0.160106
Li	      2.22142      2.39226      0.16904        -0.135256     -0.237482     -0.218031
Li	      2.22111      0.16952      2.38478        -0.067746     -0.112240     -0.454327
Li	      0.00624      2.21278      2.21475         0.163566      0.121038      0.118460
Ni	      0.00088      2.22204     -2.21724         0.668020      1.169644      1.889482
Ni	      2.21742      4.43716      2.21766         0.105576     -0.177050      0.672836
Ni	      2.21725      2.21886      4.43580         0.326985      1.460883     -1.142402
Ni	      0.17003      4.43633      0.17117        -1.378550     -0.597456     -1.351639
O	      0.09861      2.29082      0.10499        -0.616603      0.420481     -0.349790
O	      0.10427      4.36846     -1.98137        -0.875226     -0.654177      0.485410
O	      2.28562      2.29175      2.28503         0.290479      0.588560      0.481711
O	      2.14728      4.50038      0.06891        -0.134179      0.164017      1.196808
O	      0.06676      4.50792      2.15246         0.749445      0.276670     -0.413752
O	      0.07175      6.58211      0.06661         0.543280     -0.694525      0.270363
O	      2.28523      4.37096      4.36673         0.738764     -0.709735     -0.567164
O	      2.15023      6.58307      2.15132        -0.652895     -1.013653     -0.457860
