# total energy = -19.01664982 eV
 
CRYSTAL
PRIMVEC
-0.000012 2.053984 2.053996 
3.985438 -0.000033 0.000012 
-0.000022 2.054039 -2.054052 
PRIMCOORD
4 1
Li	      0.00023      2.05373      2.05011        -0.004089      0.003761      0.000016
Ni	      1.99157      2.05523     -0.00412         0.024835     -0.003487      0.002233
O	      0.00128      2.05431     -0.00350        -0.024255      0.001220     -0.002759
O	      1.99257      2.05509      2.04994         0.003509     -0.001494      0.000510
