# total energy = -37.75487672 eV
 
CRYSTAL
PRIMVEC
0.000041 2.053557 2.053539 
2.053143 -2.053572 0.000055 
6.380310 6.381644 -4.328493 
PRIMCOORD
8 1
Li	      2.07091      0.01704      2.03686         0.153507      0.151369     -0.151089
Li	      2.09159      2.08890     -0.03888        -0.148461     -0.146557      0.146753
Ni	      4.20383      2.14784     -2.14866        -0.030942     -0.032078      0.030488
Ni	      6.34257      4.28661     -2.23521         0.035733      0.036401     -0.034341
O	      4.29761      2.24171     -0.18886        -0.077540     -0.075629      0.091688
O	      4.24717      4.24481     -2.19273        -0.005949     -0.006740      0.006146
O	      6.24918      6.24648     -2.14155         0.077344      0.077318     -0.094259
O	      2.08228      0.02711     -0.02875        -0.003692     -0.004083      0.004614
