# total energy = -38.56112177 eV
 
CRYSTAL
PRIMVEC
-0.000312 2.040343 2.040935 
4.041822 -2.103416 2.103348 
1.961073 2.075529 -4.117309 
PRIMCOORD
8 1
Li	      0.03107     -0.00815      0.00570         0.048358     -0.021574      0.020839
Li	      1.95732      2.04136     -0.00656        -0.051411      0.023163     -0.017084
Ni	      3.94746      2.03355     -2.03687        -0.095688     -0.044853      0.048658
Ni	      4.04343     -0.02596      0.02283         0.096509      0.043272     -0.047682
O	      3.97107      0.05155      1.98632         0.111170     -0.089203      0.084010
O	      1.97543      2.05424     -2.05812        -0.003467      0.000675     -0.002569
O	      2.05699     -0.11971      0.11731        -0.103811      0.091488     -0.085331
O	      3.99586      2.02406      0.01348        -0.001660     -0.002969     -0.000841
