# total energy = -38.76719663 eV
 
CRYSTAL
PRIMVEC
4.025882 -0.000217 -0.000098 
0.000098 -0.000186 -4.025758 
2.012737 4.220565 -2.012822 
PRIMCOORD
8 1
Li	      6.03582      4.21679     -6.03473         0.003479      0.001152     -0.001978
Li	      2.01033      2.10689     -4.02175         0.004689      0.000957     -0.003902
Ni	      4.02359      4.21795     -4.02199        -0.000092     -0.018303      0.000583
Ni	      4.02364      2.10746     -2.00934        -0.001743     -0.011741     -0.000531
O	      2.01081      1.91878     -2.00869        -0.000661      0.082672     -0.003583
O	      4.02348      4.02930     -2.00920         0.000481      0.086312     -0.000710
O	      4.02395      2.29481     -4.02221        -0.007599     -0.067148      0.004876
O	      4.02373      0.18433     -2.00981         0.001446     -0.073901      0.005245
