# total energy = -56.28430110 eV
 
CRYSTAL
PRIMVEC
-0.000943 2.074158 2.074517 
2.075036 -2.074675 -0.000424 
8.372108 8.368931 -8.374247 
PRIMCOORD
12 1
Li	      2.10942     -2.03553     -0.03682        -0.001416     -0.007257      0.000160
Li	      2.08365      2.08510     -0.01696        -0.003362     -0.001455      0.002763
Li	      4.13601      2.06262     -2.07246         0.003065     -0.000232      0.002795
Ni	      6.21323      4.13728     -2.07413        -0.050050     -0.051613      0.054031
Ni	      6.27159      6.27018     -4.20444         0.002022      0.004609     -0.007220
Ni	      8.40309      6.32955     -6.33591         0.061137      0.059906     -0.057217
O	      8.34269      6.26703     -4.20127        -0.028597     -0.026034      0.025326
O	      4.23642      4.23518     -2.17228        -0.002615     -0.002184      0.002613
O	      6.27648      4.19953     -4.20942         0.018785      0.022035     -0.019594
O	      4.15025      2.07617     -0.01210        -0.092475     -0.093025      0.090104
O	      8.30493      8.30728     -6.23828        -0.005121     -0.004787      0.004062
O	      2.09140      0.02062     -0.02093         0.098628      0.100037     -0.097823
