# total energy = -57.06046102 eV
 
CRYSTAL
PRIMVEC
-0.000011 2.036320 2.035604 
4.148229 0.001741 -0.001763 
0.005194 6.314689 -6.312653 
PRIMCOORD
12 1
Li	      0.00206      0.09023     -0.08888         0.000311      0.020991     -0.022197
Li	      2.07887      2.07323     -0.03400        -0.000872     -0.004294      0.002480
Li	      0.00727      4.04879      0.02193         0.001089     -0.026375      0.030588
Ni	      2.08199      4.14126     -2.10338         0.002389     -0.019152      0.027415
Ni	      0.00733      4.20839     -4.20646         0.002574      0.002497     -0.004220
Ni	      2.08134      6.31376     -4.27671        -0.001193      0.033916     -0.024529
O	      0.00799      4.30096     -2.26256        -0.000773     -0.056923      0.060740
O	      2.08154      4.20986     -4.20756        -0.000012     -0.002103     -0.002390
O	      0.00533      2.06902     -0.03262        -0.001270      0.003859     -0.004013
O	      2.08325      2.21261     -2.20953        -0.000824     -0.116876      0.107104
O	      0.00700      6.15217     -4.11482         0.001729      0.059176     -0.060370
O	      2.08122      8.24348     -4.17028        -0.003146      0.105285     -0.110608
