# total energy = -58.19896611 eV
 
CRYSTAL
PRIMVEC
0.000039 1.969739 1.969670 
6.447021 2.000359 -0.030475 
0.000111 4.058859 -4.058607 
PRIMCOORD
12 1
Li	      6.42996      2.02927     -0.06381        -0.006217      0.018850     -0.017768
Li	      2.14882      1.99546     -0.02947         0.000847      0.000659      0.000029
Li	      4.31449      3.96115     -0.02658         0.011633     -0.015214      0.020242
Ni	      0.01793      3.97455     -0.03856        -0.039333     -0.055467      0.062414
Ni	      2.14887      4.02524     -2.05840        -0.000190      0.005911     -0.015519
Ni	      4.27993      6.04609     -2.10974         0.031180      0.040109     -0.044178
O	      0.00602      2.08834     -0.12126        -0.004612     -0.143721      0.137490
O	      2.14550      4.09946     -0.16321         0.071715     -0.138913      0.147320
O	      4.28861      4.14239     -2.17630         0.014920     -0.128586      0.132459
O	      0.00924      3.90739     -1.94181        -0.020570      0.136439     -0.134362
O	      2.15231      5.92103     -1.98500        -0.065473      0.135856     -0.134306
O	      4.29135      1.90370      0.06316         0.006101      0.144078     -0.153822
