# total energy = -91.07904560 eV
 
CRYSTAL
PRIMVEC
4.059275 0.000299 0.000724 
-0.000571 -0.000027 -4.165425 
2.029818 8.224278 -2.082393 
PRIMCOORD
16 1
Li	      2.02778      1.99889     -4.16524        -0.002725     -0.010953      0.002556
Li	      2.02684      6.18161     -4.16502         0.002763      0.042187      0.004662
Li	      4.05817      8.21820     -4.16449        -0.002209      0.001270      0.002746
Li	      4.05797      6.25124     -2.08011        -0.001122     -0.008669     -0.003652
Mn	      2.02878      8.15137     -2.08191         0.002032     -0.103726      0.002905
Mn	      4.05617      4.12795     -4.16401         0.001210      0.145649     -0.002870
Ni	      4.05801      2.01358     -2.08176         0.000468      0.030394      0.001566
Ni	      2.02726      4.19202     -2.08132         0.003214      0.149553     -0.000300
O	      4.05691      4.04522     -2.08149         0.002461      0.011247      0.002844
O	      2.02838      6.28232     -2.08086        -0.003209      0.118398     -0.005743
O	      4.05749      2.03969     -4.16442        -0.002613     -0.009007      0.003119
O	      2.02649      4.11932     -4.16407         0.001580     -0.009124     -0.001522
O	      4.05861      8.21821     -2.08133        -0.005888      0.005967      0.000154
O	      4.05627      5.94154     -4.16404         0.002897     -0.150091      0.001427
O	      4.05797      0.04190     -2.08128         0.003001     -0.092062     -0.004717
O	      2.02828      2.17494     -2.08151        -0.001861     -0.121035     -0.003174
