# total energy = -58.02309820 eV
 
CRYSTAL
PRIMVEC
0.000344 2.035614 2.035888 
3.997526 4.127267 -4.127311 
-4.063660 2.095188 -2.096569 
PRIMCOORD
12 1
Li	     -0.05217      6.12891     -6.12943         0.010720      0.008615     -0.009878
Li	     -2.05211      4.14121     -2.10626        -0.003285     -0.001478      0.001154
Li	     -0.05469      6.28046     -2.21098        -0.012588     -0.006306      0.008311
Ni	      1.92868      6.18916     -4.15383        -0.028456     -0.022295      0.020331
Ni	     -0.02027      2.07600     -2.07639        -0.003180     -0.014766      0.018418
Ni	      2.02821      4.12498     -2.08951         0.032954      0.027311     -0.025189
O	     -0.00513      3.97413     -1.93841        -0.066201      0.195285     -0.197096
O	     -0.03514      2.21278     -0.17741         0.062342     -0.183268      0.182891
O	      1.86564      2.11816     -2.11812         0.169308     -0.104454      0.102075
O	     -0.05333      6.20469     -4.17011         0.001084     -0.000379     -0.000242
O	     -1.90631      2.03335     -2.03387        -0.163938      0.103924     -0.102657
O	      1.97823      4.13938     -4.13982         0.001241     -0.002188      0.001882
