# total energy = -57.48969435 eV
 
CRYSTAL
PRIMVEC
0.000422 2.052627 2.056920 
6.098994 -4.193417 2.146464 
1.995173 4.157159 -2.108566 
PRIMCOORD
12 1
Li	      0.13692      2.04196      2.06233         0.038522      0.014847     -0.012237
Li	      2.01182      2.06164     -0.01253         0.000658     -0.000038     -0.000276
Li	      3.88713      4.13324     -0.03051        -0.039522     -0.015298      0.014834
Ni	      3.99549      2.03335      2.06986        -0.018142     -0.039584      0.033728
Ni	      6.05849      2.04333      0.00660         0.008604     -0.001390      0.001646
Ni	      6.12729     -0.05201      2.10965         0.033151      0.053104     -0.049138
O	      4.18688     -0.03754      2.09868        -0.126825     -0.014251      0.001760
O	      5.93644      2.01966      2.07994         0.117856      0.010242      0.001360
O	      6.05003     -2.01253      2.02274         0.051846     -0.149500      0.137373
O	      1.86727      4.17921     -0.08001         0.234929      0.002999      0.000312
O	      2.15651     -0.05653      0.05516        -0.239394     -0.003378      0.000295
O	      4.07311      1.94228      0.09887        -0.061683      0.142246     -0.129657
