# total energy = -56.32706663 eV
 
CRYSTAL
PRIMVEC
0.000189 2.051479 2.051528 
13.083194 -0.000054 -0.000069 
0.000174 2.051476 -2.051525 
PRIMCOORD
12 1
Li	      0.23344      4.10066     -0.00170        -0.034879      0.001153      0.001234
Li	      2.18085      2.05006     -0.00152        -0.000254     -0.001115     -0.000844
Li	      4.12671      2.05066      2.04986         0.031962     -0.000755     -0.000889
Ni	      6.49552      2.05026     -0.00171        -0.003247     -0.000537      0.000077
Ni	      8.72115      2.04973      2.04976        -0.006634     -0.000120     -0.000139
Ni	     10.94563      2.04928     -0.00178         0.008457      0.001631      0.001371
O	      8.72069      2.04971     -0.00178        -0.002833     -0.000751     -0.000749
O	     10.67431      4.10080     -0.00176         0.159299      0.001648      0.000900
O	      4.57350      2.05056     -0.00166        -0.201889      0.000273      0.001212
O	      6.76716      2.05019      2.04977        -0.146554     -0.000543     -0.000394
O	     12.86750      2.04923     -0.00172         0.197782     -0.000263     -0.001061
O	      2.17956      2.05001      2.04992        -0.001210     -0.000620     -0.000720
