# total energy = -57.85305874 eV
 
CRYSTAL
PRIMVEC
4.097602 -0.000169 -0.000026 
-0.000177 4.220315 -4.084477 
-2.049013 4.118848 1.940459 
PRIMCOORD
12 1
Li	     -0.00082      0.07045     -0.04145         0.000132      0.029752     -0.054240
Li	      2.04820      2.07109     -0.03419        -0.000809      0.003530      0.001876
Li	     -0.00094      4.07694     -0.02637         0.000472     -0.029133      0.054166
Ni	     -0.00055      2.10985     -1.98980        -0.005253      0.039249      0.086507
Ni	      2.04825      4.18371     -2.07585        -0.006373      0.008531      0.000806
Ni	     -0.00104      6.25888     -2.16268         0.005880     -0.046103     -0.084212
O	     -0.00042      2.07391     -0.03408        -0.000401     -0.004366     -0.005229
O	      2.04750      4.28815     -0.19062         0.004397     -0.120840      0.198427
O	     -0.00092      4.18353     -2.07593         0.002200     -0.002697     -0.004429
O	      2.04816      6.08073     -2.05977        -0.009250      0.156134     -0.137375
O	      2.04774      2.28737     -2.09172         0.009710     -0.160472      0.135463
O	     -0.00092      8.19931     -2.02079        -0.000705      0.126415     -0.191759
