# total energy = -58.21284461 eV
 
CRYSTAL
PRIMVEC
2.025383 4.131933 2.027168 
4.058212 -2.071182 -2.024710 
2.022022 2.073910 -4.066320 
PRIMCOORD
12 1
Li	      0.01069      0.00169     -0.01203         0.030758     -0.001817     -0.031587
Li	      2.02620      2.06607     -0.00165         0.001494      0.000433     -0.001816
Li	      4.04182      4.13248      0.00742        -0.030092     -0.000529      0.029934
Ni	      4.04324      2.06718     -2.02291        -0.069775      0.010944      0.076334
Ni	      6.07887      4.13308     -2.03427        -0.000913     -0.008842     -0.000438
Ni	      6.08933      2.06582     -4.07261         0.070390     -0.003416     -0.068218
O	      4.03619      0.16482     -2.01855         0.002516     -0.163451     -0.031592
O	      6.02108      2.17960     -2.07945         0.121144     -0.067053      0.110552
O	      4.11144      1.95375     -4.01550        -0.119454      0.072366     -0.117605
O	      4.07455      1.89416     -0.01076        -0.007544      0.164786      0.033015
O	      2.04740      2.23494     -2.05616        -0.032899     -0.158075      0.002631
O	      4.02684      3.96948     -2.01447         0.034376      0.154655     -0.001210
