# total energy = -57.56456466 eV
 
CRYSTAL
PRIMVEC
2.038845 -2.039313 -0.000106 
2.100627 2.100919 -4.010159 
6.214713 4.176916 1.946609 
PRIMCOORD
12 1
Li	      6.22356      4.18207      1.91982         0.022391      0.026836     -0.042026
Li	      4.12212      0.04385     -0.02110         0.002951      0.000956     -0.002247
Li	      6.20049      2.12044     -0.01473        -0.025896     -0.025058      0.045026
Ni	      2.08422      0.04491     -1.98118         0.040717      0.038351      0.069526
Ni	      4.15417      2.11364     -2.02612         0.000673      0.000444      0.000236
Ni	      6.22211      4.18445     -2.07137        -0.036822     -0.046719     -0.061671
O	      2.03438     -0.00714     -0.06874         0.011192      0.014635      0.053194
O	      4.17351      2.13330      0.02677        -0.016149     -0.015834     -0.057350
O	      6.32561      4.28849     -0.13564        -0.120444     -0.124917      0.099620
O	      6.20238      2.12126     -2.02387         0.025202      0.029913      0.009340
O	      8.19389      4.11855     -1.96982         0.120373      0.126693     -0.104600
O	      4.14514      0.06614     -2.02829        -0.024188     -0.025300     -0.009049
