# total energy = -57.33727727 eV
 
CRYSTAL
PRIMVEC
-0.014785 2.075400 2.032506 
2.031099 -2.075003 -0.015260 
8.467252 8.588274 -8.470272 
PRIMCOORD
12 1
Li	      2.04683     -2.04001     -0.03402         0.009294      0.021596     -0.007358
Li	      2.06634      2.11218     -0.04895        -0.003046     -0.022818      0.001585
Li	      6.27823      2.24026     -4.26205         0.003616      0.020292     -0.005887
Ni	      4.20865      2.20311     -2.18831        -0.010984     -0.029849      0.009367
Ni	      6.26016      6.36623     -4.24434         0.012094      0.000423     -0.012383
Ni	      8.39598      6.46606     -6.38576         0.044667      0.026533     -0.034918
O	      6.31898      8.48719     -4.30431         0.003848     -0.046981     -0.006520
O	      4.09417      4.28565     -2.07262         0.125530      0.092710     -0.127696
O	      6.32525      4.37683     -4.30946        -0.130505     -0.135731      0.129909
O	      2.28704      4.28730     -0.26598        -0.096641     -0.065956      0.095938
O	      8.31246      8.44698     -6.30191         0.040088      0.137979     -0.042687
O	      2.06878      0.03886     -0.05411         0.002038      0.001802      0.000651
