# total energy = -57.50037026 eV
 
CRYSTAL
PRIMVEC
-0.000101 2.048224 2.047912 
6.036139 2.061861 -0.013943 
-0.002346 4.158409 -4.157782 
PRIMCOORD
12 1
Li	      0.01942      2.06691      2.03267         0.007973      0.009808     -0.012061
Li	      1.91420      2.05572     -0.00505        -0.037944     -0.007263      0.003810
Li	      0.03398      4.11099     -0.01296         0.008094     -0.015795      0.016380
Ni	      4.05370      4.11482     -0.01647         0.008884     -0.013242      0.003921
Ni	      1.97002      4.15157     -2.10139        -0.111090      0.002930      0.006117
Ni	      4.07695      6.22745     -2.12863         0.092407      0.016078     -0.016902
O	      5.93070      4.12905     -0.03089         0.142059      0.002848     -0.000874
O	      2.11051      4.21831     -0.12139        -0.094034     -0.089041      0.098031
O	      3.96025      4.14691     -2.09769         0.113294     -0.004157      0.015195
O	      0.02456      4.13571     -2.08531        -0.052449      0.009825     -0.003710
O	      2.07733      6.11957     -2.01995        -0.090859      0.083277     -0.099054
O	      3.97801      2.07041     -0.01932         0.013665      0.004732     -0.010854
