# total energy = -57.73625284 eV
 
CRYSTAL
PRIMVEC
0.001544 2.059255 2.047878 
4.055975 4.187613 -4.160899 
-4.053986 2.090307 -2.081730 
PRIMCOORD
12 1
Li	     -4.02842      2.10104     -2.07691         0.020275      0.011931      0.000301
Li	     -2.08171      4.07669     -1.98841        -0.002103     -0.010148      0.006561
Li	     -1.96668      2.11810     -0.07325        -0.016372     -0.003544     -0.007529
Ni	     -0.01988      4.20626     -4.17565        -0.037527     -0.021247      0.022975
Ni	     -0.01718      4.11006     -0.00884         0.060068      0.044346     -0.033762
Ni	      2.02239      4.19866     -2.11010         0.028373      0.027074     -0.013174
O	      0.08745      4.16442     -2.09156        -0.117466     -0.020679      0.015973
O	      0.03402      2.16854     -0.11662         0.011249     -0.118718      0.120187
O	      1.95203      4.21411     -0.19373         0.039207     -0.127976      0.125424
O	     -0.13966      6.20226     -4.12293         0.127008      0.084398     -0.091086
O	     -1.88373      2.08857     -2.07149        -0.200039      0.003543     -0.007610
O	      1.98741      4.15276     -4.00085         0.087328      0.131019     -0.138263
