# total energy = -58.03364429 eV
 
CRYSTAL
PRIMVEC
4.066625 0.000097 0.000088 
0.000003 4.110554 -4.078760 
-2.033172 4.098426 2.027255 
PRIMCOORD
12 1
Li	      0.00286      0.05029     -0.02288        -0.000502      0.032961     -0.008608
Li	      2.03615      2.11405      0.03241         0.003411     -0.024273     -0.025450
Li	      2.03559      6.09462     -0.02811         0.001100      0.026865      0.030865
Ni	      0.00265      4.11271      0.03389        -0.000471      0.060761      0.057719
Ni	      2.03589      4.08075     -2.06166         0.002745     -0.024080     -0.097114
Ni	      0.00271      6.16470     -2.05772        -0.001037     -0.029610     -0.008788
O	      0.00286      2.12288      0.14985         0.001674     -0.083249     -0.209670
O	      2.03591      4.10427     -0.10788         0.000460     -0.029434      0.158639
O	      0.00282      4.25593     -1.98577        -0.004574     -0.171579     -0.040774
O	      2.03589      6.01802     -2.07261        -0.000323      0.124406      0.000026
O	      0.00249      6.20029     -0.15046        -0.002137     -0.067415      0.165973
O	      0.00268      8.04100     -2.01954        -0.000344      0.184648     -0.022817
