# total energy = -58.13618120 eV
 
CRYSTAL
PRIMVEC
2.040986 4.093991 2.041459 
4.068694 -2.045153 -2.031882 
2.031136 2.045976 -4.071022 
PRIMCOORD
12 1
Li	      8.12554      4.09211     -4.04732         0.028001     -0.000034     -0.026301
Li	      2.04926      2.04422     -0.00993        -0.022109      0.000377      0.021181
Li	      4.04254      2.04472     -2.00244         0.007178      0.002211     -0.006330
Ni	      4.08831      4.09089     -0.00739        -0.060798      0.002213      0.060941
Ni	      6.11761      4.09260     -2.03915        -0.130326     -0.011729      0.138086
Ni	      6.13584      2.04598     -4.09874         0.059505     -0.004246     -0.056808
O	      3.94945      0.03565     -2.08506         0.172393     -0.009936      0.026869
O	      6.24433      2.18097     -2.07690        -0.122156     -0.186329      0.089211
O	      4.11146      1.90849     -4.20573        -0.091124      0.193750      0.119157
O	      4.03699      2.00423      0.10660         0.001057      0.028993     -0.189557
O	      1.92733      2.08527     -1.99828         0.195907     -0.026569     -0.001374
O	      4.13070      4.05362     -1.91078        -0.037528      0.011298     -0.175075
