# total energy = -57.24471608 eV
 
CRYSTAL
PRIMVEC
4.099352 0.000040 0.000000 
0.000001 -0.000131 -4.093483 
0.000052 6.090825 -2.046554 
PRIMCOORD
12 1
Li	      4.09828      0.06113     -4.09430         0.000404      0.042819     -0.003525
Li	      2.04893      1.99902     -4.09443        -0.000576     -0.061685      0.001955
Li	      2.04870      0.00941     -2.04736         0.000503      0.039913     -0.000262
Ni	      4.09862      4.10627     -4.09468        -0.000131      0.121744     -0.002189
Ni	      4.09861      1.95590     -2.04770        -0.000027     -0.133797      0.004326
Ni	      2.04890      4.06846     -2.04777         0.000450      0.124504      0.000913
O	      2.04895      2.14919     -2.04750         0.000043     -0.058351      0.002320
O	      2.04871      5.93020     -2.04729         0.000563      0.131474     -0.002876
O	      4.09859      3.96489     -2.04804        -0.000629      0.006533      0.002329
O	      4.09866      2.11693     -4.09429        -0.001288     -0.055446     -0.001599
O	      2.04895      4.09458     -4.09436         0.000762     -0.092779     -0.001574
O	      4.09838      0.00660     -2.04742        -0.000074     -0.064929      0.000182
