# total energy = -76.58555336 eV
 
CRYSTAL
PRIMVEC
-0.000066 2.006331 2.006127 
6.284133 0.021441 -2.027780 
-2.139333 6.259352 -4.252719 
PRIMCOORD
16 1
Li	     -0.02575      2.10327      1.90968        -0.013025     -0.000595      0.002228
Li	      2.04673      2.10038     -0.09410        -0.041454      0.000077      0.003602
Li	      4.21864      2.02310     -2.02227         0.045618     -0.001200     -0.002342
Li	      0.00798      4.00476      0.00792         0.011330     -0.000634      0.001602
Ni	      2.07303      4.11914     -2.11184        -0.021330     -0.012185      0.004576
Ni	      4.18998      4.15532     -4.15508         0.053997     -0.022147      0.017542
Ni	     -0.06293      6.22630     -2.21334        -0.052951      0.025900     -0.023369
Ni	      2.05395      6.26248     -4.25612         0.023898      0.012688     -0.005461
O	      4.12299      4.25995     -2.25331         0.084820     -0.126492      0.128330
O	      4.19993      1.93298      0.07355        -0.036998      0.093786     -0.091329
O	      2.06349      6.19447     -2.18159        -0.001472     -0.005530      0.005486
O	      2.06696      2.18913     -2.18821         0.032224     -0.088884      0.086395
O	      4.14658      6.07159     -4.06570        -0.042090      0.135733     -0.133720
O	      0.00390      6.12162     -4.11496        -0.084165      0.129597     -0.130444
O	     -0.01976      4.30998     -2.30304         0.043055     -0.138446      0.134471
O	     -0.00914      2.05050     -0.04386        -0.001456     -0.001667      0.002434
