# total energy = -77.46454555 eV
 
CRYSTAL
PRIMVEC
0.008952 2.068839 2.033877 
5.955603 6.247139 -4.082262 
-4.034403 2.110050 -2.092411 
PRIMCOORD
16 1
Li	      1.94607      8.32582     -6.14549         0.038060      0.010154     -0.006355
Li	     -2.04813      4.14631     -2.08215        -0.000623      0.002339     -0.012444
Li	     -0.03112      6.29080     -2.09430         0.004340      0.003895      0.010765
Li	      1.92264      6.29589     -4.14959        -0.039017     -0.016169      0.005957
Ni	      3.91931      8.30528     -4.12542        -0.091956     -0.024001      0.041505
Ni	     -0.00639      4.13143     -0.04948        -0.019008      0.011830     -0.034626
Ni	      1.96394      4.20151     -2.03366         0.019892     -0.013987      0.021953
Ni	      3.99284      6.27256     -2.04373         0.092259      0.027671     -0.039925
O	      1.99772      6.24482     -1.88658        -0.118492      0.096468     -0.174131
O	      1.90535      4.19558     -0.12375         0.116270     -0.094315      0.154959
O	     -0.17095      6.38044     -4.16839         0.120386     -0.099771      0.147343
O	      1.93845      8.34369     -4.13073         0.000970      0.001667      0.000196
O	     -1.90667      4.06212     -0.00938        -0.121125      0.102031     -0.141028
O	      0.05326      4.13962     -1.95901        -0.119643      0.090363     -0.151471
O	      3.95125      6.25282     -4.10279         0.000958      0.002267      0.003714
O	     -0.04066      2.08660     -0.19769         0.116729     -0.100441      0.173589
