# total energy = -90.80786076 eV
 
CRYSTAL
PRIMVEC
4.148183 0.000236 0.002303 
-0.001086 0.000145 -4.070729 
2.073604 8.455228 -2.034342 
PRIMCOORD
16 1
Li	      4.14729      4.33305     -4.06805        -0.001173     -0.016565      0.003921
Li	      2.07332      6.28330     -4.06913        -0.001915      0.017603     -0.002629
Li	      4.14679      2.28097     -2.03226        -0.000431      0.003939     -0.000893
Li	      2.07391      4.22961     -2.03360        -0.000256     -0.010068      0.000575
Mn	      2.07317      8.43051     -2.03390        -0.000267     -0.016382     -0.000098
Mn	      2.07235      2.20927     -4.06875         0.000345      0.161903     -0.001745
Ni	      4.14683      8.40690     -4.06814         0.002329      0.030488     -0.002740
Ni	      4.14792      6.21252     -2.03268        -0.001122      0.096980     -0.002489
O	      4.14778      4.29686     -2.03248        -0.002308     -0.131224      0.002645
O	      2.07360      6.53326     -2.03417        -0.000111      0.018040      0.002113
O	      4.14647      1.93952     -4.06754         0.000819      0.025093     -0.003809
O	      2.07310      4.01444     -4.06871        -0.000813     -0.167243      0.000468
O	      2.07254      0.09808     -4.06916         0.001991      0.028164      0.000813
O	      4.14730      6.40850     -4.06817        -0.000993     -0.106217      0.001752
O	      2.07270      8.44859     -4.06924         0.000986     -0.005261      0.000128
O	      2.07285      2.01159     -2.03339         0.002918      0.070752      0.001989
