# total energy = -75.78782473 eV
 
CRYSTAL
PRIMVEC
0.000281 2.072218 2.071891 
8.408063 -4.088627 4.088822 
2.102037 2.032821 -4.104002 
PRIMCOORD
16 1
Li	      2.20480      4.02431     -1.95332         0.037134     -0.036415      0.032934
Li	      2.12461      2.01886      0.05207         0.049517      0.030252     -0.024354
Li	      4.09625      2.03687     -2.03769        -0.035526      0.013458     -0.011152
Li	      4.02331      0.04489     -0.04575        -0.023534      0.005142      0.001241
Ni	      4.14978     -1.98513      1.98526        -0.114357     -0.011341      0.015155
Ni	      6.31476      0.05864      2.01367        -0.091089     -0.005872      0.004643
Ni	      6.36051     -2.03384      4.10504         0.016296     -0.006438      0.001190
Ni	      8.44640     -2.07406      2.07276         0.100225      0.013288     -0.017029
O	      8.30954     -1.96667      4.03685         0.045141     -0.052228      0.066326
O	      4.36962     -0.01813      2.09080         0.036007      0.060625     -0.074807
O	      6.46137      0.04558     -0.04465        -0.022914      0.051683     -0.019547
O	      6.41873     -2.02320      2.02275         0.082663     -0.018840      0.004761
O	      8.33800      0.01454      2.05717         0.064312     -0.050088      0.023716
O	      1.89964      1.97862     -1.97992        -0.025009     -0.006491      0.006086
O	      2.06108     -0.05495      0.05350         0.056075     -0.100166      0.104260
O	      4.30897      2.11566     -0.04444        -0.174939      0.113432     -0.113422
