# total energy = -76.77288304 eV
 
CRYSTAL
PRIMVEC
0.124266 2.053168 -2.059125 
0.123386 2.055758 2.056849 
17.287981 0.963073 0.016331 
PRIMCOORD
16 1
Li	     17.29179      4.46838      0.00861         0.018023     -0.006117      0.002247
Li	      1.89988      1.31828     -0.00255        -0.006778     -0.001303     -0.000763
Li	      4.70178      1.09844      0.00836         0.018351      0.002114     -0.000409
Li	      6.84691      3.01892      0.01069        -0.012799      0.005562     -0.002260
Ni	      8.57865      0.85345      0.01239         0.018695      0.002274     -0.000937
Ni	     10.93899      2.77804      0.01066        -0.043642      0.001466      0.000068
Ni	     13.22105      4.70856      0.00856        -0.102678      0.005338     -0.000071
Ni	     15.31017      2.52520      0.00910         0.099711     -0.010012      0.001995
O	     13.05025      2.65672      0.00971         0.081863     -0.004403      0.000337
O	     15.24968      4.59076      0.00798         0.110349     -0.012028      0.000318
O	      8.90414      2.89572      0.01123        -0.157737      0.015461     -0.000235
O	     10.84523      0.72183      0.01181        -0.009577      0.000296     -0.000080
O	      4.12367      3.21317      0.00369        -0.000812      0.003570     -0.000632
O	      6.56146      0.97436      0.01204        -0.068812      0.012138     -0.001563
O	     17.33102      2.40382      0.00965         0.034441     -0.007443      0.001701
O	      2.71751      3.31339      0.00035         0.021400     -0.006914      0.000285
