# total energy = -77.35967257 eV
 
CRYSTAL
PRIMVEC
2.066956 4.090229 1.945526 
4.137839 -2.032903 -1.975008 
-0.002269 4.180646 -4.070379 
PRIMCOORD
16 1
Li	      6.15226      2.13577     -0.07380         0.010056      0.008638     -0.040000
Li	      2.06249      2.11716     -0.04100         0.015197      0.028486     -0.010915
Li	      4.13890      4.06232     -0.05214        -0.015812     -0.027821      0.008589
Li	      4.18738      2.00985     -1.99484        -0.010573     -0.008578      0.040015
Ni	      4.13492      0.06552     -3.96633        -0.036305      0.027913      0.093512
Ni	      2.06416      4.14474     -2.05703         0.016881      0.010706     -0.011680
Ni	      4.13502      6.21407     -2.10726        -0.017068     -0.008858      0.012922
Ni	      4.13539      4.17025     -4.11813         0.034982     -0.026828     -0.092215
O	      2.00551      2.24981     -2.13222         0.079509     -0.176617      0.126728
O	      4.15221      4.30355     -2.11298         0.041433     -0.144827      0.111472
O	      2.12637      4.01869     -3.97739        -0.078892      0.177009     -0.129240
O	      4.11081      1.95252      0.08507        -0.003303      0.136549     -0.184448
O	      4.13605      0.02756     -2.00662        -0.000732      0.000528     -0.001554
O	      2.09097      4.22461     -0.17939         0.002834     -0.133803      0.184920
O	      4.13460      2.11936     -4.04227         0.001881     -0.005413      0.000605
O	      2.04769      6.05568     -2.05169        -0.040088      0.142916     -0.108710
