# total energy = -75.76591702 eV
 
CRYSTAL
PRIMVEC
-0.013013 2.076169 2.030508 
2.029759 -2.076141 -0.012989 
10.741624 12.988891 0.029185 
PRIMCOORD
16 1
Li	     12.70521     10.86709    -10.69557         0.113922      0.099957     -0.113805
Li	      2.13926      2.20076     -0.12466        -0.092912     -0.076116      0.093413
Li	      4.24781      2.24015     -2.23215         0.000019     -0.001174      0.000703
Li	      6.40867      6.53361     -4.39387        -0.000646     -0.013616      0.001237
Ni	      4.33539      6.47280     -2.31792        -0.018772     -0.028932      0.017626
Ni	      8.43133      6.49063     -6.41651         0.066044     -0.005591     -0.063813
Ni	      8.51099     10.73820     -6.49791        -0.010891     -0.008484      0.011125
Ni	     10.62640     10.84569     -8.61609        -0.072146     -0.002241      0.069314
O	     10.55444      8.66764     -8.54368         0.175946      0.043573     -0.167364
O	      6.45419      8.64327     -4.43857        -0.168449     -0.048737      0.166578
O	      8.51473      8.65743     -6.50006        -0.172132     -0.054584      0.163260
O	      6.26309      4.39522     -4.24574         0.133600      0.129124     -0.135568
O	      2.20868      4.33026     -0.19324        -0.005174     -0.002525      0.006070
O	      4.45713      4.40800     -2.44030        -0.076253     -0.064919      0.077286
O	     10.54209     12.83146     -8.53203         0.117608      0.027286     -0.116067
O	      2.02478      0.00346     -0.01004         0.010234      0.006979     -0.009995
