# total energy = -75.95071704 eV
 
CRYSTAL
PRIMVEC
0.000002 2.043854 2.044289 
4.080240 -0.003795 0.003803 
-0.014289 8.415371 -8.416982 
PRIMCOORD
16 1
Li	      0.00836      0.08824     -0.08612        -0.001039      0.090713     -0.087843
Li	      2.03851      2.06927     -0.02390         0.001410      0.011156     -0.009172
Li	      4.06783      2.10623     -2.10360         0.003354     -0.048532      0.049416
Li	      4.06970      4.13945     -4.13643        -0.002019     -0.059408      0.059068
Ni	      2.02807      4.17540     -2.12855        -0.000955      0.026140     -0.025902
Ni	      2.03139      6.22819     -4.17968        -0.001721     -0.044893      0.041573
Ni	     -0.00705      6.30188     -6.29667        -0.001310     -0.019039      0.014627
Ni	      2.03440      8.43109     -6.38279        -0.001120      0.025662     -0.027091
O	     -0.00859      6.36323     -4.31473         0.000080     -0.095779      0.096678
O	      2.03304      6.28867     -6.28338         0.002233      0.044081     -0.042841
O	      4.06758      4.19510     -2.14838         0.000802      0.048805     -0.048368
O	      2.02953      4.18018     -4.17638        -0.002036     -0.048781      0.049066
O	      4.07733      2.07734     -0.03077         0.002641      0.002271      0.000060
O	      2.02697      2.25313     -2.25069         0.001078     -0.036805      0.037623
O	     -0.00562      8.27815     -6.22804         0.001242      0.083244     -0.086040
O	      2.03510      8.32322     -8.31933        -0.002640      0.021165     -0.020853
