# total energy = -77.17484944 eV
 
CRYSTAL
PRIMVEC
0.000524 2.004181 2.002654 
6.223637 6.157750 -4.148682 
-4.170844 2.074825 -2.074213 
PRIMCOORD
16 1
Li	      2.12839      8.19046     -6.17884         0.059145      0.029698     -0.036841
Li	     -2.10293      4.07988     -2.07652        -0.011517     -0.038491      0.041385
Li	     -0.09932      6.14143     -2.13268        -0.042112     -0.036035      0.036613
Li	     -2.04530      2.08696     -0.07767         0.006832      0.021661     -0.026108
Ni	      2.09402      6.18439     -4.17610        -0.019429     -0.016867      0.012521
Ni	     -0.03188      4.06570     -0.05765        -0.035762      0.000505      0.004129
Ni	      2.01609      4.10424     -2.09796         0.049182      0.005973     -0.008489
Ni	      4.18862      6.13003     -2.12122         0.020214      0.011718     -0.014013
O	      2.00460      6.14393     -2.13212        -0.046441      0.003449     -0.011975
O	      1.92097      4.13974     -0.13110         0.128352     -0.084561      0.088731
O	     -0.05588      6.27725     -4.26624         0.004836     -0.129171      0.114136
O	      2.07386      8.14768     -4.13594         0.092011      0.084701     -0.086699
O	     -1.87923      4.06144     -0.05190        -0.220997      0.002460     -0.006511
O	     -0.02346      3.97078     -1.96707        -0.066417      0.145500     -0.136808
O	      4.13983      6.02508     -4.02512         0.066556      0.141322     -0.114775
O	      0.01987      2.18111     -0.17634         0.015549     -0.141862      0.144703
