# total energy = -75.26812247 eV
 
CRYSTAL
PRIMVEC
0.000055 2.064424 -2.050195 
0.000002 2.063719 2.049483 
16.718696 0.000207 -0.000168 
PRIMCOORD
16 1
Li	      0.24055      2.06334     -2.04910         0.023443      0.000493     -0.000670
Li	      2.13551      2.06329      0.00058         0.046463     -0.000379      0.000246
Li	      4.17605      2.06401     -2.04966        -0.004479      0.000010      0.000501
Li	      8.27661      2.06407     -2.04975         0.034420     -0.000098      0.000501
Ni	      6.34212      2.06375      0.00009        -0.057767     -0.000221     -0.000177
Ni	     10.27850      2.06350      0.00023         0.018198     -0.000038      0.000447
Ni	     12.44480      4.12742     -0.00005        -0.019005     -0.000106     -0.000455
Ni	     14.64843      2.06326      0.00037         0.052631      0.000048     -0.000688
O	     12.44895      2.06332      0.00031        -0.092307     -0.000003     -0.000606
O	     14.35983      4.12731      0.00001         0.535143     -0.000369     -0.000421
O	      8.29173      2.06374      0.00007        -0.192945      0.000474     -0.000543
O	     10.50993      4.12751     -0.00013        -0.583205      0.000294      0.000283
O	      4.48173      2.06367      0.00019        -0.013580     -0.000097     -0.000202
O	      6.31372      2.06411     -2.04976         0.155997      0.000165      0.000863
O	     16.57630      2.06322      0.00049         0.140750     -0.000198      0.000137
O	      2.19438      2.06363     -2.04931        -0.043757      0.000025      0.000785
