# total energy = -76.80180157 eV
 
CRYSTAL
PRIMVEC
4.071610 -0.000248 -0.000059 
2.035596 4.147620 -6.165427 
-2.036074 4.106541 2.027996 
PRIMCOORD
16 1
Li	      4.07205      0.11076     -0.06227         0.001454     -0.009809     -0.029790
Li	      2.03629      2.10894     -0.05356        -0.000874      0.043369     -0.000772
Li	     -0.00019      4.14891      0.05581         0.003802      0.006064      0.023558
Li	      2.03584      4.06027     -1.99338        -0.000725      0.000996      0.021101
Ni	      4.07187      2.09475     -1.99378         0.002183      0.097576      0.030945
Ni	      0.00002      6.12137     -2.06049        -0.001871     -0.024230     -0.020412
Ni	      4.07170      4.08426     -4.13547         0.002842      0.062560      0.005523
Ni	      2.03594      6.17368     -4.21600        -0.004303     -0.058499     -0.013110
O	      4.07159      4.06760     -2.24405         0.001329      0.036922      0.159926
O	      0.00022      2.15572     -0.05171         0.000003     -0.038652      0.053478
O	      2.03588      6.29549     -2.04423         0.000940     -0.175881     -0.041770
O	      2.03578      4.34122     -0.00023         0.000769     -0.228222     -0.003535
O	      2.03598      4.16760     -4.15023         0.000689     -0.033712     -0.003049
O	      4.07184      5.98566     -4.09405         0.001405      0.184036     -0.074624
O	      2.03620      2.05244     -2.10838        -0.006545      0.014591      0.116927
O	      2.03593      8.09384     -3.97915        -0.001098      0.122890     -0.224397
