# total energy = -75.64616707 eV
 
CRYSTAL
PRIMVEC
0.000055 2.063822 2.064003 
2.063615 -2.063759 -0.000008 
10.443803 12.508269 0.029945 
PRIMCOORD
16 1
Li	      0.03901      2.10015      2.02554        -0.041189     -0.037502      0.041557
Li	      2.07663      2.07759     -0.01111         0.012879      0.011426     -0.012661
Li	      4.12635      2.05930     -2.05764         0.030117      0.033070     -0.034051
Li	      8.33507      6.27256     -6.26990        -0.001632      0.000120     -0.001870
Ni	      4.14930      6.21445     -2.08668        -0.069232     -0.070512      0.070527
Ni	      6.28750      6.28901     -4.22530        -0.016803     -0.015316      0.017606
Ni	      8.31419     10.38288     -6.25178         0.020747      0.017519     -0.019781
Ni	     10.45282     10.45769     -8.39048         0.069709      0.068570     -0.069247
O	     10.42276      8.36424     -8.36057        -0.047246     -0.050668      0.048701
O	      6.19879      8.26424     -4.13642         0.127183      0.129482     -0.126786
O	      8.40260      8.40748     -6.34049        -0.127398     -0.130227      0.128076
O	      6.24282      4.18006     -4.18070         0.050354      0.049383     -0.048763
O	      2.09084      4.15326     -0.02301        -0.067710     -0.068302      0.066222
O	      4.24294      4.24459     -2.18059        -0.003476     -0.004852      0.005186
O	     10.35903     12.42754     -8.29646         0.000318      0.001835     -0.001275
O	      2.07033      0.00557     -0.00588         0.063381      0.065973     -0.063440
