# total energy = -76.61882795 eV
 
CRYSTAL
PRIMVEC
0.000001 2.021526 2.021654 
4.107011 0.000285 -0.000284 
0.001073 8.419423 -8.420148 
PRIMCOORD
16 1
Li	      4.10498      2.06849      1.97404         0.000186      0.117121     -0.116145
Li	      2.05249      2.06236     -0.04137         0.000190     -0.001180      0.001295
Li	      0.00035      2.05661     -2.05597        -0.000759     -0.117759      0.115607
Li	      2.05343      6.27146     -4.25100         0.000108     -0.000201     -0.000002
Ni	      2.05407      4.15043     -2.13008        -0.001344     -0.081834      0.088475
Ni	      4.10727      6.25198     -2.21024         0.000650      0.053879     -0.051129
Ni	      4.10651      8.31321     -4.27105        -0.000964     -0.048810      0.049461
Ni	      2.05263      8.39333     -6.37211         0.000430      0.076277     -0.092954
O	      4.10707      6.27193     -4.25141        -0.000582     -0.002393      0.001564
O	      2.05286      8.45311     -4.41141         0.000675     -0.188238      0.197488
O	      0.00063      4.27313     -2.25298        -0.001234     -0.073143      0.071949
O	      2.05386      6.11215     -2.06978         0.000020      0.193062     -0.197182
O	      4.10614      2.06258     -0.04115         0.000667     -0.002081      0.001781
O	      2.05425      4.27391     -0.23157        -0.001092     -0.076477      0.074335
O	      4.10591      8.27038     -6.24970         0.002320      0.074388     -0.074886
O	      2.05234     10.29111     -6.24904         0.000731      0.077389     -0.069656
