# total energy = -76.88218564 eV
 
CRYSTAL
PRIMVEC
0.000016 2.044998 2.043459 
6.031789 -0.011381 -2.032029 
-2.062010 6.230222 -4.182187 
PRIMCOORD
16 1
Li	      6.00580      2.04257      0.00271         0.005668      0.009459     -0.005807
Li	      2.00200      2.05273     -0.00170         0.003098     -0.001829     -0.003746
Li	      4.03095      2.04835     -2.04008        -0.004526     -0.003421      0.002613
Li	      3.98830      4.13907     -4.13349        -0.001826     -0.003067      0.001708
Ni	     -0.06536      4.11535     -0.02027        -0.056409      0.023171     -0.029055
Ni	      2.05217      4.12026     -2.07013         0.094869      0.027030     -0.026530
Ni	     -0.10773      6.21313     -2.11934        -0.094797     -0.023120      0.019983
Ni	      2.00905      6.21905     -4.16824         0.058784     -0.029219      0.020495
O	      4.03724      4.09079     -2.03954        -0.028037      0.001134      0.002999
O	      4.01323      1.91769      0.12959        -0.022034      0.119713     -0.113643
O	      1.95431      6.19750     -2.10574         0.086129     -0.021950      0.033051
O	      1.88544      2.15782     -2.15048         0.133552     -0.102103      0.097468
O	      3.93875      6.23136     -4.18245         0.025139      0.001165      0.001327
O	      0.05858      6.13136     -4.08261        -0.138200      0.096551     -0.093747
O	     -0.00979      4.13544     -2.08554        -0.085129      0.025528     -0.023089
O	     -0.00803      2.18688     -0.13562         0.023719     -0.119043      0.115974
