# total energy = -76.53233344 eV
 
CRYSTAL
PRIMVEC
0.000100 2.040962 2.041006 
6.093350 6.217455 -4.176269 
-4.079959 2.089033 -2.089273 
PRIMCOORD
16 1
Li	      0.05140      2.08417      1.99624        -0.007812      0.036948     -0.034013
Li	     -2.04339      4.14985     -2.10908        -0.000041      0.000342      0.000557
Li	     -0.06407      6.16640     -2.08508         0.010802     -0.037561      0.039590
Li	     -0.00563      4.12840     -0.04241         0.000216     -0.001973     -0.007537
Ni	      1.97957      6.20121     -4.16117        -0.095405     -0.062154      0.064562
Ni	     -2.02187      2.09705     -0.05507        -0.072507     -0.036258      0.032453
Ni	      2.00890      4.11386     -2.07356         0.066847      0.035547     -0.032610
Ni	      4.10090      6.22558     -2.14508         0.092691      0.062810     -0.060714
O	      2.05307      6.18897     -2.10773        -0.094440     -0.021540      0.022534
O	      2.05034      4.21517     -0.13406         0.004579     -0.105879      0.099698
O	     -0.07322      6.32697     -4.28755        -0.005430     -0.118192      0.123808
O	      2.07351      8.18891     -4.10759         0.002314      0.121532     -0.124586
O	     -2.06360      4.03737      0.04728         0.000976      0.106572     -0.102086
O	      0.14644      4.15844     -2.11709        -0.209390     -0.008540      0.011610
O	      4.02731      6.23758     -4.19893         0.098373      0.021958     -0.021660
O	     -0.15934      2.05329     -0.01158         0.208226      0.006389     -0.011609
