# total energy = -76.83531470 eV
 
CRYSTAL
PRIMVEC
-0.000063 2.042430 2.041959 
8.133639 -4.220283 4.218975 
1.980637 2.091457 -4.132963 
PRIMCOORD
16 1
Li	      0.07264     -0.01266      0.01386         0.064999      0.001847     -0.000944
Li	      2.00511      2.05036     -0.00690         0.002127     -0.000350      0.001406
Li	      3.93793      2.07104     -2.06898        -0.061499      0.000096     -0.000395
Li	      6.07253     -0.05928      2.10265        -0.000382     -0.000054     -0.000252
Ni	      4.01229     -0.04711      0.04908         0.068071     -0.038517      0.037164
Ni	      4.05943     -2.08960      2.09070         0.071998      0.048553     -0.049355
Ni	      8.08575     -0.07136      0.07262        -0.074266     -0.048074      0.050621
Ni	      8.13269     -2.11401      2.11448        -0.068048      0.039207     -0.037598
O	      8.08844     -2.02674      4.06876         0.114327     -0.114872      0.118324
O	      4.07515     -0.04136      2.08418        -0.009439      0.005235      0.005176
O	      6.01577      0.03851     -0.03656         0.043867     -0.150244      0.135088
O	      6.12930     -2.19920      2.19986        -0.043095      0.146789     -0.134638
O	      8.06980     -0.07729      2.12122         0.010253     -0.005488     -0.005817
O	      1.86430      2.10942     -2.10753         0.244646      0.011639     -0.012230
O	      2.14717     -0.05034      0.05229        -0.247614     -0.012717      0.012479
O	      4.05666      1.90783      0.13678        -0.115944      0.116949     -0.119028
