# total energy = -75.53623278 eV
 
CRYSTAL
PRIMVEC
0.000097 2.068036 -2.068096 
0.000120 2.068050 2.068110 
16.556531 0.000729 0.000129 
PRIMCOORD
16 1
Li	      0.09149      0.00043     -0.00017         0.112094     -0.000381      0.000189
Li	      2.07002      2.06924      0.00005         0.003421      0.000720     -0.000118
Li	      4.05102      0.00163      0.00008        -0.111261      0.001294     -0.000182
Li	     10.34996      2.06936     -0.00010         0.001564     -0.000258     -0.000250
Ni	      6.22475      2.06980     -0.00000        -0.231632      0.000142     -0.000084
Ni	      8.39342      0.00164     -0.00009         0.088392     -0.000901      0.000217
Ni	     12.30642      0.00089     -0.00014        -0.092416      0.000329     -0.000119
Ni	     14.47550      2.06885     -0.00012         0.227968      0.000235     -0.000127
O	     12.48151      2.06889     -0.00014        -0.034131      0.000032      0.000272
O	     14.32788      2.06877      2.06798        -0.006868      0.000755      0.000179
O	      8.21859      2.06968     -0.00007         0.032961     -0.001024      0.000137
O	     10.35000      0.00129     -0.00013         0.006063     -0.000726      0.000149
O	      4.35065      2.06984      0.00003         0.034503      0.000701      0.000045
O	      6.37201      0.00175     -0.00001         0.001325     -0.001301     -0.000066
O	     16.34968      2.06911     -0.00004        -0.037210     -0.000284      0.000041
O	      2.07137      0.00129      0.00006         0.005227      0.000668     -0.000284
