# total energy = -77.26104182 eV
 
CRYSTAL
PRIMVEC
4.048457 -0.000244 0.000055 
2.023875 4.187726 -6.117640 
-2.024429 4.156040 2.017699 
PRIMCOORD
16 1
Li	      2.02497      4.19854      1.93984        -0.000238      0.003272     -0.031947
Li	      2.02472      2.08325     -0.00748        -0.000590      0.000345     -0.001991
Li	      0.00038      4.12465      0.06308        -0.000500     -0.001316      0.031302
Li	      0.00027      6.25803     -2.05674        -0.000955      0.000512     -0.001858
Ni	      4.04912      2.11125     -1.99319        -0.004227      0.031653      0.063301
Ni	      2.02461      4.23154     -2.00606         0.005363      0.007728      0.011929
Ni	      4.04894      4.12725     -4.12514         0.000374     -0.012942     -0.016581
Ni	      2.02448      6.24675     -4.13892         0.006172     -0.033008     -0.060942
O	      4.04897      4.05336     -2.14994        -0.006798      0.175594      0.060704
O	      0.00070      2.08445     -0.00885         0.001063     -0.000883      0.004061
O	      2.02465      6.25579     -2.05471         0.000613      0.002948     -0.004334
O	      2.02452      4.38943     -0.10271         0.003622     -0.183034      0.129524
O	      2.02471      4.30401     -3.98021        -0.000309     -0.172840     -0.062188
O	      4.04895      6.08945     -4.11694        -0.002255      0.132937      0.001363
O	      2.02460      2.27088     -2.01441         0.000897     -0.135476     -0.000820
O	      2.02465      8.12447     -4.01234        -0.002233      0.184510     -0.121524
