# total energy = -77.25297826 eV
 
CRYSTAL
PRIMVEC
2.013702 4.081259 2.015294 
4.072499 -2.052325 -2.036515 
-0.006051 4.118363 -4.098683 
PRIMCOORD
16 1
Li	      2.02920      4.08398      1.98370         0.037326      0.007188     -0.003009
Li	      2.02197      2.04249     -0.01412         0.000657      0.001135      0.001294
Li	      2.01562      0.00438     -2.01110        -0.038779     -0.007504      0.003867
Li	      2.01914      4.10379     -2.06223         0.000203     -0.002567     -0.001631
Ni	      4.04022      2.07373     -2.00977        -0.066763      0.080803      0.066575
Ni	      0.02739      2.07050     -2.02192         0.111245      0.070349      0.076539
Ni	      4.01048      6.13692     -2.10355        -0.102385     -0.068311     -0.076645
Ni	      4.07104      4.08124     -4.15220         0.056999     -0.082106     -0.067968
O	      2.01097      2.05433     -2.17040         0.054276     -0.009107      0.163292
O	      4.13775      4.13658     -2.12943        -0.151124     -0.037491      0.105638
O	      2.12246      3.94829     -4.13776        -0.104851      0.189822      0.002343
O	      3.98756      1.94092      0.02419         0.005918      0.093179     -0.042828
O	      4.12921      0.09570     -2.08775        -0.006294     -0.094000      0.044840
O	      1.91567      4.25933      0.01237         0.108561     -0.187751     -0.002969
O	      3.97313      2.01861     -4.03231         0.148706      0.038090     -0.106394
O	      2.02700      6.15306     -1.95490        -0.053693      0.008272     -0.162943
