# total energy = -75.80663376 eV
 
CRYSTAL
PRIMVEC
-0.019070 2.080272 2.035598 
2.029967 -2.080312 -0.018944 
10.683766 12.928824 0.029326 
PRIMCOORD
16 1
Li	      2.07656     -1.98574     -0.06864        -0.118171     -0.109893      0.113549
Li	      2.01618      2.04192      0.00169         0.117063      0.130894     -0.113996
Li	      4.31630      6.50146     -2.31391        -0.111526     -0.127751      0.108787
Li	      6.30787      6.36755     -4.29997         0.104583      0.102732     -0.101374
Ni	      4.18930      2.19519     -2.18499         0.001805     -0.006046      0.001403
Ni	      8.44489      6.47650     -6.44030         0.063465     -0.002857     -0.058165
Ni	      8.50548     10.73888     -6.50871        -0.002383     -0.003980      0.000671
Ni	     10.61530     10.83890     -8.63221        -0.048323      0.016697      0.040556
O	     10.55026      8.65770     -8.56757         0.162764      0.024043     -0.106601
O	      6.49439      8.66242     -4.48653        -0.207992     -0.100485      0.202530
O	      8.50969      8.65893     -6.50475        -0.159873     -0.021981      0.106378
O	      6.31338      4.33141     -4.30982         0.003268      0.004182     -0.003331
O	      2.26595      4.32820     -0.26286        -0.195644     -0.175702      0.206744
O	      4.06402      4.22240     -2.05270         0.190385      0.177729     -0.204716
O	     10.51766     12.81444     -8.53257         0.200002      0.093252     -0.193252
O	      2.06851      0.05073     -0.05706         0.000578     -0.000836      0.000815
