# total energy = -93.12525017 eV
 
CRYSTAL
PRIMVEC
2.091854 4.186188 2.037118 
4.109447 -2.061894 -2.025051 
0.007859 4.200518 -4.110576 
PRIMCOORD
16 1
Li	      2.03948      2.14150     -0.04171        -0.015515      0.000254     -0.008841
Li	      4.10234      2.14077     -2.09401         0.000519      0.013572      0.004851
Li	      0.03916      2.12025     -2.06717         0.010946     -0.000166      0.018840
Li	      2.04837      4.17138     -1.98218        -0.004325     -0.022065      0.027565
Mn	      0.02366      4.19760     -4.11245         0.018786     -0.003282     -0.017295
Mn	      4.13348      4.23176     -0.05664        -0.008867      0.026391     -0.031192
Ni	      4.14539      6.27165     -2.01927        -0.025032      0.027851     -0.008930
Ni	      4.15257      4.21708     -4.05371        -0.021030      0.048410      0.039981
O	      4.08630      4.21851     -1.97165        -0.011246     -0.121029      0.131266
O	      4.14241      2.19603     -4.20611         0.097392     -0.126087     -0.073826
O	      4.28078      2.16819     -0.00121         0.044576      0.105030     -0.093655
O	      3.99373     -0.08895     -2.00616        -0.030527     -0.034296     -0.097163
O	      2.21573      4.17674      0.08394         0.028795     -0.004593      0.028029
O	      2.09238      1.91437     -2.05014         0.002160     -0.062380      0.123514
O	      2.07019      6.48735     -2.07326         0.022997      0.059886     -0.009708
O	      1.99963      4.19544     -4.20788        -0.109628      0.092505     -0.033434
