# total energy = -91.29225498 eV
 
CRYSTAL
PRIMVEC
0.000018 2.073942 2.074332 
4.229398 -4.181965 4.182764 
4.229387 4.182012 -4.182746 
PRIMCOORD
16 1
Li	      2.30144      2.08339     -0.00678         0.012764     -0.002237      0.001906
Li	      4.23241      1.94800     -1.94519        -0.001351     -0.032093      0.031156
Li	      4.23159      0.14272     -0.14169         0.000035      0.032279     -0.030884
Li	      6.16258      2.08097     -0.00800        -0.012455     -0.000598      0.003925
Mn	      4.23191      4.17395     -4.17180         0.002090      0.026973     -0.025395
Mn	      4.23179     -2.08159      2.08515         0.004904     -0.028837      0.027038
Ni	      2.11729     -0.00785      2.08521         0.001099      0.000634     -0.000741
Ni	      6.34658     -0.00763      2.08512        -0.001276     -0.002029      0.001960
O	      2.31264     -2.03700      2.04030         0.032992     -0.080509      0.080758
O	      6.54242     -0.05269      0.05579         0.022881      0.079395     -0.080166
O	      4.23215     -2.09957      4.17731         0.000106      0.002125     -0.003400
O	      6.15123     -2.03682      2.04028        -0.036489     -0.081424      0.081003
O	      4.23197      4.27419     -2.19819        -0.001298     -0.003035     -0.000001
O	      1.92171     -0.05279      0.05580        -0.026618      0.077121     -0.077854
O	      4.23202      2.08231     -0.00621         0.001739      0.006138     -0.007201
O	      4.23182     -0.10771      2.18578         0.000878      0.006096     -0.002103
