# total energy = -76.75050836 eV
 
CRYSTAL
PRIMVEC
0.000000 2.022774 2.022820 
4.084732 -0.000025 0.000025 
-0.000030 8.359810 -8.359836 
PRIMCOORD
16 1
Li	      0.00044      2.08749      1.95798         0.000124      0.043207     -0.043249
Li	      2.04271      2.06835     -0.04620        -0.000644      0.062983     -0.062892
Li	      2.04278      4.13558     -2.11387         0.000355     -0.065396      0.067090
Li	      0.00045      6.13929     -2.09464         0.000155     -0.041920      0.041653
Ni	      0.00042      4.11354     -0.06874        -0.000672     -0.012029      0.012621
Ni	      2.04279      6.18304     -4.16047         0.001236     -0.018807      0.017042
Ni	      0.00041      8.29357     -4.24827        -0.001142     -0.003064      0.003757
Ni	      2.04278      8.38088     -6.35843        -0.000031      0.023135     -0.023356
O	      0.00043      6.30627     -4.28353        -0.000961     -0.147267      0.148451
O	      2.04270      8.29351     -4.24814         0.000341      0.001123     -0.000519
O	      0.00039      3.99444     -1.97245         0.000180      0.164530     -0.165416
O	      2.04274      6.27905     -2.23385         0.000360     -0.079179      0.080528
O	      0.00040      2.20898     -0.18697         0.000838     -0.152599      0.152869
O	      2.04276      4.11294     -0.06829        -0.000610      0.000461     -0.002000
O	      0.00034      8.25795     -6.23564         0.000100      0.147616     -0.149125
O	      2.04270     10.30767     -6.26247         0.000371      0.077207     -0.077454
