# total energy = -76.97813870 eV
 
CRYSTAL
PRIMVEC
0.000168 2.022953 2.023376 
8.143580 -4.195731 4.197138 
2.013158 2.113382 -4.136942 
PRIMCOORD
16 1
Li	      0.07223     -0.01837      0.01915         0.019337     -0.012316      0.009195
Li	      2.04367      2.04921     -0.02676         0.008811      0.006123     -0.011116
Li	      4.03452     -0.01258      0.01005        -0.007336     -0.005361      0.009502
Li	      6.00677      2.05544     -0.03552        -0.020595      0.010487     -0.011536
Ni	      4.04590      2.07440     -2.07748         0.001319     -0.004737      0.005958
Ni	      6.01917     -0.04419      2.06477        -0.137559     -0.033496      0.035819
Ni	      8.11840     -0.02268      0.02071        -0.003997     -0.000765      0.001616
Ni	      8.20394     -2.11483      2.11381         0.137555      0.035581     -0.037546
O	      8.08154     -2.05343      4.07619         0.048992     -0.136088      0.114025
O	      4.04097     -0.02932      2.04937         0.046928     -0.020768      0.015582
O	      6.14166     -0.10553      0.10228        -0.046554      0.134608     -0.112009
O	      6.14181     -2.09924      2.09798        -0.076069     -0.007627     -0.001286
O	      8.08186     -0.05935      2.08036         0.076450      0.006166      0.002872
O	      2.03813      2.06559     -2.06669        -0.048239      0.021365     -0.016422
O	      2.03655     -0.15782      0.15518        -0.000822      0.164403     -0.160531
O	      4.04207      2.19262     -0.17287         0.001778     -0.157575      0.155876
