# total energy = -75.64846069 eV
 
CRYSTAL
PRIMVEC
0.000023 2.059198 -2.059200 
-0.000016 2.059209 2.059210 
16.586642 0.000044 -0.000198 
PRIMCOORD
16 1
Li	      0.23882      2.05761     -2.05699         0.097069      0.001373     -0.002169
Li	      2.07574      2.05797      0.00162        -0.034208      0.000067     -0.000009
Li	      6.22545      2.05829      0.00102         0.018147     -0.001129      0.001156
Li	      8.05433      2.05821     -2.05817        -0.091171      0.000411     -0.000564
Ni	      4.15239      2.05812     -2.05792        -0.117854     -0.000018     -0.000161
Ni	     10.23146      2.05822      0.00118        -0.027615     -0.000772      0.000992
Ni	     12.44133      2.05804     -2.05772         0.008599     -0.000442      0.000556
Ni	     14.65019      2.05792      0.00179         0.046230     -0.000159     -0.000175
O	     12.44246      2.05804      0.00149         0.000898      0.001279     -0.001842
O	     14.42606      2.05794     -2.05745         0.003669     -0.001012      0.001400
O	      8.29676      2.05821      0.00107        -0.172132     -0.000536      0.000566
O	     10.45855      2.05819     -2.05801        -0.016303      0.000327     -0.000498
O	      4.13918      2.05813      0.00126         0.078381      0.000617      0.000027
O	      5.99862      2.05826     -2.05809         0.115663     -0.000873      0.000445
O	     16.58623      2.05774      0.00197         0.156683      0.000315      0.001459
O	      2.29935      2.05801     -2.05766        -0.066056      0.000553     -0.001183
