# total energy = -77.13918988 eV
 
CRYSTAL
PRIMVEC
4.072928 0.000137 -0.000238 
2.036950 4.085719 -6.090902 
-2.036444 4.121278 2.054571 
PRIMCOORD
16 1
Li	      2.03568      4.16661      1.97615         0.001150      0.042005      0.017049
Li	      2.03548      2.13922     -0.05413         0.001470     -0.019846     -0.033311
Li	      4.07307      1.96630     -1.96800         0.000335      0.018827      0.034511
Li	      2.03676      4.05928     -1.94299        -0.002011     -0.040598     -0.016459
Ni	     -0.00029      4.11323      0.01738         0.000181     -0.002541     -0.017535
Ni	     -0.00005      6.12886     -1.97400         0.000930      0.129205      0.008789
Ni	      4.07261      4.09563     -4.05632         0.005871     -0.004551      0.000758
Ni	      2.03648      6.18299     -4.08414        -0.001112     -0.129678      0.002581
O	      0.00017      4.17647     -1.93077        -0.000583     -0.164243     -0.100427
O	     -0.00066      2.21456      0.11767        -0.000126     -0.132343     -0.214648
O	      2.03678      6.26957     -2.14584        -0.003862     -0.106297      0.124347
O	      2.03617      4.11323      0.01680        -0.000465      0.000198     -0.000414
O	      2.03671      4.09618     -4.05625        -0.004915     -0.003112     -0.000296
O	      4.07263      6.04242     -3.91229         0.003089      0.112158     -0.129011
O	      2.03651      1.89011     -2.13876        -0.000183      0.137911      0.212662
O	     -0.00067      4.04924      1.96386         0.000231      0.162905      0.111405
