# total energy = -76.77376443 eV
 
CRYSTAL
PRIMVEC
-0.021169 2.093527 2.025352 
2.025524 -2.093398 -0.021235 
10.458938 12.799698 0.029912 
PRIMCOORD
16 1
Li	      2.04133     -2.04965     -0.04012         0.007190      0.021815     -0.005554
Li	      2.06058      2.11686     -0.05903         0.000771     -0.024890     -0.000219
Li	      4.17907      6.39311     -2.17016        -0.005397     -0.011957      0.003223
Li	      8.28475      6.41669     -6.27854         0.007657      0.025321     -0.008046
Ni	      4.19248      2.18211     -2.18365         0.002638     -0.020545     -0.005773
Ni	      6.21845      6.40384     -4.21031        -0.002279     -0.002371      0.002237
Ni	      8.26309     10.57227     -6.25825         0.006779      0.010868     -0.006061
Ni	     10.39874     10.66916     -8.39529         0.037574      0.002274     -0.037408
O	     10.37013      8.51870     -8.36588         0.020030     -0.036389     -0.019602
O	      6.09943      8.50471     -4.09157         0.141436      0.082970     -0.141535
O	      8.32641      8.57821     -6.32108        -0.108444     -0.128643      0.108500
O	      6.33403      4.29305     -4.32561        -0.147373     -0.071403      0.148453
O	      2.27117      4.28869     -0.26246        -0.106408     -0.061162      0.108954
O	      4.08067      4.28922     -2.07185         0.131613      0.084055     -0.133490
O	     10.31668     12.65816     -8.31363         0.002580      0.130715     -0.003251
O	      2.06058      0.03418     -0.05890         0.011634     -0.000658     -0.010427
