# total energy = -76.74065364 eV
 
CRYSTAL
PRIMVEC
0.000009 2.022343 2.022677 
4.039982 0.000008 0.000011 
-0.000086 8.356546 -8.357768 
PRIMCOORD
16 1
Li	      4.03937      0.05963     -0.05486        -0.000953      0.030292     -0.030801
Li	      2.01946      2.09146     -0.06776        -0.000846      0.040059     -0.039039
Li	      2.01870      4.14452     -2.12083        -0.000770     -0.035011      0.037222
Li	      2.01833      6.13603     -4.11167        -0.000411     -0.016549      0.017625
Ni	      4.03910      2.08752     -2.08578         0.000625      0.077657     -0.078627
Ni	      4.03842      4.16061     -4.15875         0.001066     -0.014690      0.014413
Ni	      4.03873      6.23518     -6.23214        -0.000061     -0.096068      0.094401
Ni	      2.01897      8.36528     -6.33945        -0.001076      0.017551     -0.017918
O	      4.03843      6.21512     -4.19021         0.001217      0.044458     -0.046637
O	      2.01877      6.42912     -6.42596         0.000694     -0.143677      0.142295
O	      4.03876      4.11900     -2.09518         0.000517     -0.041961      0.042821
O	      2.01853      4.18669     -4.18504         0.000155     -0.000947      0.002052
O	      4.03937      2.17575     -0.15117        -0.000255     -0.123646      0.124481
O	      2.01918      2.06987     -2.06874         0.000114     -0.020732      0.022670
O	      4.03891      8.24343     -6.21772         0.000211      0.105279     -0.105129
O	      2.01918      8.23688     -8.23339        -0.000226      0.177985     -0.179828
