# total energy = -76.99545092 eV
 
CRYSTAL
PRIMVEC
-0.000054 2.038459 2.039370 
6.057224 0.013671 -2.053161 
-2.029564 6.215293 -4.178471 
PRIMCOORD
16 1
Li	     -0.00454      2.05116      2.02726         0.026617      0.009962     -0.014641
Li	      1.92097      2.09749     -0.05829        -0.039168     -0.003047      0.002025
Li	     -0.03010      4.06040      0.01961         0.030965     -0.014176      0.014522
Li	      4.08934      4.16960     -4.17395        -0.009330     -0.001329      0.002931
Ni	      4.05129      2.05745     -2.05963        -0.009399     -0.077996      0.087317
Ni	      2.03356      4.11911     -2.08363        -0.024666      0.031022     -0.029580
Ni	     -0.04527      6.21203     -2.13794        -0.122072      0.007147     -0.010641
Ni	      2.07502      6.22262     -4.18533         0.036831      0.030839     -0.033407
O	      4.00877      4.00996     -1.97741         0.046124      0.173703     -0.173806
O	      4.00114      2.05161     -0.00718         0.003143     -0.019557      0.006389
O	      1.99069      6.21777     -2.14530         0.136812     -0.050549      0.043815
O	      2.11825      2.11247     -2.11505        -0.131995     -0.079475      0.096177
O	      4.04285      6.18523     -4.15022        -0.064313      0.000714      0.003505
O	      0.05631      6.10284     -4.06532        -0.073556      0.135293     -0.140293
O	      0.04279      4.27897     -2.24660        -0.017392     -0.140105      0.148807
O	     -0.14725      2.07706     -0.03702         0.211401     -0.002446     -0.003119
