# total energy = -92.35267766 eV
 
CRYSTAL
PRIMVEC
-2.041095 4.251964 -2.041674 
2.041061 4.251953 2.041677 
2.029701 -0.000021 -6.112518 
PRIMCOORD
16 1
Li	     -0.00187      6.37629     -2.03639        -0.000352      0.000862      0.000136
Li	     -0.02969      4.25091     -4.04689        -0.000936      0.000063     -0.011262
Li	      0.02591      4.24996     -0.02586         0.001967      0.000407      0.008882
Li	     -0.00201      2.12472     -2.03654        -0.000468     -0.002546      0.000023
Mn	     -1.98476      4.25048     -2.09525         0.028099      0.000391     -0.030355
Mn	      1.98092      4.25040     -1.97750        -0.028802      0.000449      0.031092
Ni	      2.03346      6.37642     -4.07176        -0.000102     -0.000188     -0.000327
Ni	      2.03349      2.12444     -4.07174        -0.000402     -0.000214     -0.000773
O	     -0.07610      4.25040     -6.18144        -0.047745     -0.000525     -0.058185
O	      2.06504      6.17906     -2.06234        -0.133123     -0.081525      0.137420
O	      2.10196      4.25042     -4.00385         0.047891     -0.000207      0.059500
O	      2.03917      4.25042      0.00529         0.000190     -0.000420      0.001243
O	      2.06503      2.32164     -2.06233        -0.133131      0.082412      0.138037
O	      2.00184      6.57374     -6.08120         0.133799      0.082870     -0.138387
O	     -0.00192      4.25042     -2.03639         0.000163     -0.000384      0.001112
O	      2.00188      1.92724     -6.08118         0.132952     -0.081446     -0.138156
