# total energy = -77.16537238 eV
 
CRYSTAL
PRIMVEC
4.052268 -0.000076 -0.000094 
2.026180 4.026466 -6.173403 
-2.026239 4.062144 2.081200 
PRIMCOORD
16 1
Li	      4.05475      0.03443     -0.04894        -0.000364      0.042508     -0.016192
Li	      2.02828      2.06805     -0.01707         0.002063     -0.025904      0.005840
Li	      4.05475      2.00367     -2.01311         0.000289     -0.009642      0.037346
Li	      0.00272      6.02209     -2.00882        -0.002017      0.013716      0.007205
Ni	      0.00252      4.08767      0.04781        -0.004600      0.047768      0.015835
Ni	      2.02890      4.01471     -2.02989        -0.001900     -0.017307     -0.022354
Ni	      4.05500      4.01053     -4.13473        -0.001249     -0.040377     -0.063846
Ni	      2.02858      6.09105     -4.11071         0.001420     -0.072359     -0.052511
O	      0.00271      4.00186     -2.02956        -0.002988     -0.010240     -0.081576
O	      0.00238      2.14563      0.20090        -0.001552     -0.120440     -0.225705
O	      2.02850      6.12065     -2.23271         0.005538     -0.024507      0.212836
O	      2.02851      4.09230     -0.09546        -0.002904     -0.002160      0.146467
O	      2.02879      4.17331     -4.02163         0.000101     -0.195517     -0.013687
O	      4.05459      5.94266     -4.12182         0.000990      0.091747      0.012350
O	      2.02877      1.96289     -2.04728         0.004532      0.059506     -0.017609
O	      2.02842      7.95476     -4.09776         0.002641      0.263208      0.055601
