# total energy = -76.81125518 eV
 
CRYSTAL
PRIMVEC
0.021484 2.030166 2.083785 
2.007480 -2.008628 0.000103 
10.531452 12.546633 0.029771 
PRIMCOORD
16 1
Li	      2.04736      0.04234      2.05953         0.000739      0.000618     -0.008812
Li	      2.06828      2.07018     -0.00494         0.002061      0.000275      0.007890
Li	      4.23370      6.24646     -2.21404         0.009375      0.007501     -0.021516
Li	      8.39941     10.41278     -6.42815        -0.010201     -0.009178      0.023717
Ni	      4.17913      2.17069     -2.17508        -0.027841     -0.031559      0.015773
Ni	      6.24896      6.25340     -4.27163        -0.001105     -0.000692     -0.000540
Ni	      8.36672      6.36558     -6.45754         0.001463     -0.000487      0.004400
Ni	     10.44556     10.45046     -8.54908         0.031642      0.032229     -0.021628
O	     10.54103      8.53764     -8.54300        -0.144686     -0.139380      0.085760
O	      6.31434      8.32887     -4.32294         0.001286      0.001959     -0.002755
O	      8.32522      8.33261     -6.37618         0.106283      0.102998     -0.113785
O	      6.29118      4.28658     -4.35279        -0.108430     -0.103804      0.118543
O	      2.29532      4.30524     -0.10504        -0.081772     -0.088813      0.067972
O	      4.08488      4.08261     -2.17998         0.131717      0.140987     -0.094897
O	     10.34225     12.35539     -8.53676         0.092327      0.089757     -0.060937
O	      2.04708      0.04138     -0.01465        -0.002857     -0.002412      0.000814
