# total energy = -76.53681857 eV
 
CRYSTAL
PRIMVEC
-0.000005 2.048159 2.048669 
6.052041 0.051560 -2.100225 
-1.958263 6.229818 -4.182619 
PRIMCOORD
16 1
Li	      0.07150      0.02852     -0.03500         0.035740     -0.022273      0.021793
Li	      1.95306      2.04439     -0.00106        -0.039438      0.022504     -0.020849
Li	      0.06392      4.09383     -0.00262         0.024249     -0.005274      0.001001
Li	      0.00110      6.25713     -2.16630        -0.022141      0.001724      0.000076
Ni	      4.07223      2.08704     -2.09273        -0.045587     -0.006267      0.011837
Ni	      1.97967      4.16055     -2.11842        -0.114931      0.048490     -0.053049
Ni	      4.13799      4.19328     -4.19918         0.104887     -0.048540      0.048665
Ni	      2.04537      6.26766     -4.22434         0.051049      0.007949     -0.011272
O	      3.99406      4.15890     -2.12126         0.112109      0.000104     -0.011259
O	      4.03865      2.08905     -0.04041        -0.002432      0.008649      0.004330
O	      2.12277      6.23988     -2.15157        -0.101920     -0.011854      0.006911
O	      2.12871      2.18969     -2.19568        -0.082602     -0.140339      0.139757
O	      3.98909      6.16542     -4.12020         0.083599      0.146533     -0.138864
O	      0.17336      6.26122     -4.21905        -0.188059      0.006767     -0.001051
O	      0.03251      4.15084     -2.10874         0.004198      0.001358     -0.003770
O	     -0.10773      2.04209      0.00124         0.181279     -0.009533      0.005744
