# total energy = -76.57319260 eV
 
CRYSTAL
PRIMVEC
0.000092 2.035639 2.035788 
5.951172 6.196284 -4.160674 
-4.010569 2.096153 -2.096502 
PRIMCOORD
16 1
Li	     -3.98765      4.12775     -0.05666         0.047174     -0.011509      0.007939
Li	     -2.04643      4.15062     -2.11500        -0.047758      0.007030     -0.006886
Li	      1.95405      6.21348     -4.17932         0.007004      0.023282     -0.027035
Li	      1.97404      4.12434     -2.09417        -0.007370     -0.016891      0.030121
Ni	     -0.03381      6.20037     -2.13186        -0.054331     -0.002069      0.003904
Ni	      3.91676      8.24911     -4.17621        -0.081822     -0.029200      0.040587
Ni	      0.01064      4.12990     -0.05744         0.083700      0.024312     -0.040760
Ni	      3.96185      6.17465     -2.10487         0.055493      0.002412     -0.003537
O	      1.96412      6.18672     -2.11890        -0.001446     -0.000381     -0.000370
O	      1.94416      4.07387     -0.00325         0.028693      0.013802     -0.007497
O	     -0.04109      6.21805     -4.18397        -0.001199      0.002322     -0.000476
O	      1.98367      8.30256     -4.23231        -0.031443     -0.012769      0.006004
O	     -1.93769      4.02572      0.05064        -0.103162      0.090114     -0.116224
O	     -0.04154      4.13376     -2.10243         0.005760     -0.000714     -0.014188
O	      3.96885      6.20414     -4.17190        -0.002024      0.004197      0.017177
O	     -0.08614      2.16019     -0.12009         0.102731     -0.093939      0.111242
