# total energy = -77.32968031 eV
 
CRYSTAL
PRIMVEC
0.000066 2.011150 2.010879 
8.194685 -4.126247 4.126020 
2.058924 2.099813 -4.110464 
PRIMCOORD
16 1
Li	      2.08546      4.08202     -2.07088        -0.002869      0.021292     -0.021187
Li	      2.02540      2.06977     -0.05812         0.000673     -0.023048      0.022732
Li	      4.03733     -0.02075      0.02129        -0.034283      0.022011     -0.021363
Li	      6.20998     -2.06126      4.07210         0.035301     -0.019412      0.018176
Ni	      4.05495      2.07753     -2.07719        -0.049187      0.003869      0.002313
Ni	      6.15111      2.03440     -0.02300         0.019300     -0.042082      0.046888
Ni	      6.15730     -0.00886      2.01933        -0.005121      0.048296     -0.048319
Ni	      8.25002     -2.06207      2.06185         0.034147     -0.011024      0.008156
O	      8.21154     -1.94673      3.95769        -0.000522     -0.160079      0.163761
O	      4.08578     -0.09332      2.10429         0.043793      0.100272     -0.101358
O	      6.15541      0.00994     -0.00980         0.001780     -0.000183     -0.000805
O	      6.18037     -1.99477      1.99453        -0.050836     -0.107197      0.101953
O	      8.19263     -0.14335      2.15345         0.064991      0.163368     -0.160574
O	      2.04302      2.07159     -2.07136         0.013465      0.001100      0.000245
O	      2.03418     -0.13716      0.13718        -0.001006      0.158017     -0.164175
O	      4.11258      2.16934     -0.15745        -0.069626     -0.155200      0.153557
