# total energy = -75.91605372 eV
 
CRYSTAL
PRIMVEC
0.000100 2.060794 -2.060825 
0.000060 2.060809 2.060840 
16.155675 0.000616 -0.000210 
PRIMCOORD
16 1
Li	      0.05969      2.05956      2.05736         0.056354      0.001128      0.000507
Li	      1.95921      2.06068     -0.00431        -0.065057      0.000744      0.000576
Li	      6.00909      2.06296     -0.00432        -0.011532     -0.000259      0.000363
Li	     12.16179      2.06186      2.05783         0.019899     -0.000399     -0.001453
Ni	      4.02901      2.06199      2.05637         0.015832     -0.000192      0.002984
Ni	      7.98620      2.06346      2.05699        -0.129455     -0.001311      0.000595
Ni	     10.18557      2.06289     -0.00368         0.129821     -0.000628      0.001515
Ni	     14.14282      2.06077     -0.00335        -0.015188      0.000434      0.001340
O	     12.20408      2.06163     -0.00309         0.048316     -0.000282      0.000113
O	     14.14537      2.06069      2.05758        -0.039422      0.000647     -0.001519
O	      8.11029      2.06350     -0.00384        -0.033588     -0.000575     -0.000870
O	     10.06162      2.06301      2.05707         0.033487     -0.000902      0.001412
O	      4.02632      2.06198     -0.00447         0.040130      0.000439     -0.002083
O	      5.96782      2.06289      2.05653        -0.050406     -0.000348      0.000339
O	     16.02945      2.06023     -0.00360         0.023591      0.000829     -0.001128
O	      2.14232      2.06099      2.05651        -0.022782      0.000674     -0.002690
