# total energy = -77.30943019 eV
 
CRYSTAL
PRIMVEC
2.114698 4.032173 2.014556 
4.178248 -1.982941 -2.029472 
0.034265 4.026089 -4.050726 
PRIMCOORD
16 1
Li	      6.19330      2.04155     -0.01678        -0.002799     -0.010295     -0.013579
Li	      2.20599      2.02860     -0.00194         0.004767      0.009541      0.015336
Li	      4.19664      2.02438     -1.99754         0.003495     -0.021427     -0.006928
Li	      4.23832      6.07215     -2.07235        -0.005817      0.021134      0.008612
Ni	      2.09696      0.00519     -2.00918         0.003735     -0.018864      0.049235
Ni	      4.17584      0.05134     -4.03775        -0.054761      0.040405      0.055604
Ni	      2.14229      4.01260     -2.04654         0.069195     -0.038410     -0.057647
Ni	      4.22157      4.05915     -4.07523        -0.003084      0.021898     -0.053465
O	      1.95844      2.03868     -2.02364         0.134046     -0.011847      0.002670
O	      4.21724      4.04817     -2.03545        -0.002167      0.003728     -0.000650
O	      2.30811      4.03049     -4.05195        -0.153653     -0.012335      0.006524
O	      4.19951      2.03602     -0.00963         0.002098     -0.000943     -0.001751
O	      4.01039      0.03367     -2.03168         0.153221      0.012994     -0.003777
O	      2.29647      4.10466     -0.05965        -0.140721     -0.106376      0.124322
O	      4.36027      2.02464     -4.06064        -0.143912      0.008820     -0.001120
O	      1.95873      5.97521     -1.98125         0.136356      0.101977     -0.123386
