# total energy = -76.98706615 eV
 
CRYSTAL
PRIMVEC
0.003715 2.078524 2.111207 
4.062319 -4.185359 4.258255 
3.930408 4.127898 -4.186949 
PRIMCOORD
16 1
Li	      0.10648      1.98748      2.17997         0.049124      0.000834      0.002548
Li	      1.99421      2.03554      0.16890        -0.017610      0.007668      0.022975
Li	      3.95955      4.16166     -0.11847         0.007573     -0.009449     -0.021494
Li	      1.90870      0.09250      2.06122        -0.040268     -0.012855     -0.004427
Ni	      3.96541      0.04947      0.07243        -0.032894     -0.065701      0.028857
Ni	      5.98779      2.07187      0.07208        -0.015710     -0.017103      0.003887
Ni	      4.02290     -0.07022      4.23112         0.015705      0.023336     -0.009913
Ni	      6.04259     -0.11877      2.12607         0.031911      0.048573     -0.029101
O	      4.10036      2.08080      0.27778        -0.150974      0.104437     -0.143865
O	      4.09300     -0.18274      2.03259        -0.123561      0.096545      0.071583
O	      5.91381      0.10878      0.16449         0.132552     -0.088663     -0.073727
O	      3.95788     -1.97010      4.18789         0.152441     -0.150889      0.080792
O	      5.91259     -0.07452      4.03159         0.136998     -0.091365      0.129375
O	      3.82336      4.11347     -2.10686         0.238959     -0.001957     -0.004010
O	      2.12248      0.00896      0.04857        -0.242465     -0.008734      0.003403
O	      6.05123      3.96787      0.11085        -0.141780      0.165323     -0.056884
