# total energy = -76.63847839 eV
 
CRYSTAL
PRIMVEC
4.058459 0.002340 -0.000046 
0.000039 0.000140 -3.986979 
2.033478 8.367387 -1.993883 
PRIMCOORD
16 1
Li	      4.05391      0.07556     -3.98790        -0.001718      0.005388      0.001223
Li	      2.02500      2.15640     -3.98769         0.000815      0.010133     -0.000671
Li	      4.06090      4.12355     -3.98760         0.000355     -0.009464     -0.001326
Li	      2.03206      6.20527     -3.98797         0.002559     -0.008283      0.000482
Ni	      2.02650      0.03008     -1.99394         0.007314      0.066720     -0.004116
Ni	      4.05596      2.12106     -1.99455         0.004888      0.104489     -0.006369
Ni	      2.03028      4.15903     -1.99414        -0.005964     -0.101591      0.007355
Ni	      4.05944      6.25046     -1.99421        -0.007336     -0.064870      0.000195
O	      2.02643      2.11294     -1.99425        -0.000197     -0.024879     -0.005202
O	      4.05963      4.16776     -1.99443        -0.001909      0.021842      0.008598
O	      4.05897      8.20912     -1.99444        -0.001761      0.154194      0.007709
O	      4.05332      2.10218     -3.98835        -0.007250     -0.009194      0.008695
O	      2.02978      6.08518     -1.99421         0.002641      0.181999      0.010534
O	      2.03246      4.17868     -3.98727         0.007443      0.006406     -0.006879
O	      4.06050      6.43907     -3.98767         0.000528     -0.153626     -0.006333
O	      4.05610      0.19476     -1.99423        -0.000407     -0.179263     -0.013893
