# total energy = -76.73455237 eV
 
CRYSTAL
PRIMVEC
-0.001050 2.023239 2.052778 
8.090695 2.057601 -2.092152 
-0.012177 4.143764 -4.204938 
PRIMCOORD
16 1
Li	      0.00568      0.01698     -0.01399         0.026924     -0.022803      0.035489
Li	      1.92824      2.06986     -0.06367        -0.041670     -0.004421     -0.014442
Li	      4.00777      4.04519     -0.01481        -0.004728     -0.026061     -0.002809
Li	      0.04561      4.09305     -0.04763        -0.003363      0.022341     -0.036219
Ni	      6.10936      4.09402     -2.09133         0.073864     -0.005844     -0.012720
Ni	      1.98865      4.10220     -2.09790        -0.111081     -0.009273      0.006278
Ni	      4.03480      4.13888     -4.20149        -0.034234      0.014999     -0.014510
Ni	      6.10056      6.19452     -4.24968         0.137667      0.009770     -0.002473
O	      4.09761      4.26362     -2.13552        -0.014576     -0.114450      0.117016
O	      5.96516      6.15682     -2.15134         0.073707      0.005497      0.002843
O	      4.07620      6.02817     -4.19227        -0.070372      0.155981     -0.123625
O	      6.02753      2.06357     -2.09245        -0.017565     -0.027849      0.013334
O	      8.01285      4.11420     -2.12462         0.097430      0.005990     -0.001904
O	      2.03498      4.18777     -0.17197         0.029393     -0.065105      0.091728
O	      8.06848      6.18944     -4.23126        -0.045330      0.000414     -0.002967
O	      2.12245      4.04634     -4.05734        -0.096067      0.060817     -0.055021
