# total energy = -76.83229867 eV
 
CRYSTAL
PRIMVEC
-0.001023 2.038178 2.056172 
4.071630 -4.171113 4.205414 
4.008965 4.137977 -4.176256 
PRIMCOORD
16 1
Li	      0.04148      1.99580      2.08561         0.008216      0.005047     -0.008213
Li	      2.07072      2.00741      0.03351         0.032396      0.021764     -0.012361
Li	      3.97377      4.07580     -0.00246        -0.016921     -0.010775      0.015687
Li	      4.00066      0.06436     -0.04276        -0.010389      0.022695     -0.006366
Ni	      1.97574      0.00256      2.03912        -0.019033     -0.038905      0.036127
Ni	      6.02414      2.03040      0.02823         0.001746     -0.021180      0.011309
Ni	      4.06501     -0.06637      4.16560         0.045844     -0.027996      0.029396
Ni	      6.10446     -0.03896      2.07528         0.033778      0.032406     -0.020797
O	      4.15284      2.03834      0.01038        -0.197014      0.008575      0.001064
O	      4.03484     -0.20732      2.14433         0.024063      0.149027     -0.139607
O	      6.07091      0.01686      0.02578         0.009378     -0.029798      0.046261
O	      3.96842     -1.96041      4.12416         0.095580     -0.150018      0.115438
O	      5.96387     -0.01158      4.07030         0.130937     -0.114082      0.080494
O	      4.01359      4.11158     -2.10020        -0.021843      0.022626     -0.013117
O	      2.02265     -0.08393      0.09327         0.017765      0.107656     -0.090145
O	      2.13004     -0.06435      4.15003        -0.134505      0.022959     -0.045173
