# total energy = -76.92716820 eV
 
CRYSTAL
PRIMVEC
4.044921 0.000004 -0.000043 
0.000032 4.147759 -4.062843 
-0.000068 6.210657 2.020547 
PRIMCOORD
16 1
Li	      4.04490      0.06040      0.01383        -0.000011      0.028777     -0.023672
Li	      2.02251      2.07540     -0.03862        -0.000550      0.011844     -0.019178
Li	      0.00022      4.13215     -0.01066        -0.000853     -0.026380      0.006808
Li	      0.00007      2.04815     -2.00589        -0.000113     -0.002315      0.039763
Ni	      2.02253      6.25364      0.04346        -0.001830      0.068808      0.058331
Ni	      2.02246      4.10317     -2.02016        -0.001208     -0.022377      0.016748
Ni	      4.04472      6.20612     -2.06218         0.000850      0.012919      0.003051
Ni	      2.02255      8.28140     -2.06674        -0.002083     -0.081314     -0.056487
O	      4.04472      2.05967      0.14446         0.000971      0.003900     -0.249175
O	      2.02243      4.28614      0.00933         0.000321     -0.081090     -0.009930
O	      4.04473      4.29704     -2.04193         0.000676     -0.162389      0.001799
O	      2.02215      6.23524     -1.97515         0.001683     -0.024784     -0.082530
O	      4.04482      6.23969     -0.13665         0.000773     -0.007782      0.183939
O	      2.02239      8.27817     -0.09536         0.000304     -0.001621      0.098203
O	      4.04477      8.10273     -2.06730         0.000578      0.196312      0.015231
O	      2.02234     10.21989     -2.03708         0.000492      0.087493      0.017101
