# total energy = -76.22521620 eV
 
CRYSTAL
PRIMVEC
4.099159 -0.000233 0.000358 
-0.000355 -0.000050 -4.050902 
2.048981 8.217106 -2.025177 
PRIMCOORD
16 1
Li	      4.10075      0.10408     -4.05204        -0.001481      0.015183     -0.001765
Li	      2.05009      1.98381     -4.05226         0.001289     -0.055393     -0.000827
Li	      4.09927      4.05981     -4.05200         0.004546     -0.039379     -0.003629
Li	      4.10008      8.21487     -4.05180        -0.000372      0.039520     -0.003073
Ni	      2.05015      6.24018     -4.05227        -0.003931      0.151921      0.006646
Ni	      4.09986      2.00478     -2.02676         0.004504     -0.170961     -0.004497
Ni	      2.05028      4.08268     -2.02691         0.000229     -0.023126      0.002492
Ni	      4.09994      6.15845     -2.02636         0.000909      0.178023     -0.000511
O	      2.05028      2.17238     -2.02700         0.001459      0.031336     -0.002492
O	      4.09989      4.14857     -2.02674        -0.004950     -0.030941     -0.001360
O	      4.10054      8.04472     -2.02646        -0.004086      0.161997      0.004330
O	      4.09965      2.04489     -4.05237        -0.003741      0.083186      0.003095
O	      2.05045      6.04164     -2.02676         0.001888     -0.108785     -0.001219
O	      2.04996      4.28837     -4.05242         0.003615     -0.107839      0.001803
O	      4.09963      6.19206     -4.05170         0.002550     -0.106873     -0.004062
O	      2.05053      8.19425     -4.05224        -0.002426     -0.017868      0.005069
