# total energy = -91.38397674 eV
 
CRYSTAL
PRIMVEC
4.067101 -0.000265 -0.002133 
0.002139 -0.000177 -4.067146 
2.033788 8.577798 -2.034005 
PRIMCOORD
16 1
Li	      2.03647      2.14839     -4.06759         0.000736     -0.001634     -0.000770
Li	      4.06788      4.36060     -4.06716        -0.001693     -0.040989      0.002362
Li	      4.07011      8.51311     -4.06868        -0.004264      0.042471      0.002387
Li	      4.06823      2.14762     -2.03566         0.002281     -0.001087      0.000668
Mn	      4.07055      0.08733     -4.06918        -0.003594      0.200823      0.003854
Mn	      2.03369      4.20931     -2.03288         0.003416     -0.207370     -0.003084
Ni	      2.03523      6.43729     -4.06671        -0.001842      0.001925      0.001274
Ni	      4.06777      6.43723     -2.03415        -0.002454      0.001994      0.001749
O	      4.06727      4.39073     -2.03365        -0.001229     -0.086991     -0.002534
O	      2.03419      6.43738     -2.03318         0.001464      0.000395     -0.001411
O	      4.07017      1.87313     -4.06920        -0.000715     -0.098982      0.001836
O	      2.03445      4.39062     -4.06655         0.003365     -0.086656      0.001373
O	      4.06865      8.48364     -2.03504         0.001982      0.087639      0.000614
O	      4.06881      6.43709     -4.06775         0.001086      0.000566     -0.001563
O	      2.03640      8.48387     -4.06739        -0.001744      0.087256     -0.002968
O	      2.03437      2.42322     -2.03354         0.003205      0.100640     -0.003787
