# total energy = -77.14767244 eV
 
CRYSTAL
PRIMVEC
0.000082 2.047380 2.047422 
4.054006 -4.162872 4.163115 
4.053816 4.162952 -4.162874 
PRIMCOORD
16 1
Li	      4.05177     -2.10284      6.19744         0.000923      0.019991     -0.019508
Li	      2.02448      2.06754     -0.01750         0.001128      0.001154     -0.001247
Li	      4.05069      2.07267     -2.07196         0.003016     -0.021527      0.020631
Li	      6.07792      2.06694     -0.01865         0.001932      0.001716     -0.000360
Ni	      1.96885     -0.01539      2.06342        -0.124143     -0.002878      0.001603
Ni	      4.05220      0.02595     -0.02427        -0.005164     -0.001716     -0.001585
Ni	      4.05207     -2.10411      2.10553         0.012248     -0.006530      0.001373
Ni	      6.13594     -0.01483      2.06279         0.120334     -0.008461      0.000720
O	      4.05141      1.95826      0.09331         0.000595      0.170984     -0.164420
O	      4.05242     -0.01834      2.06126         0.001297     -0.001731     -0.006273
O	      5.97253      1.96791      2.12683         0.172280      0.081514     -0.076758
O	      4.05238     -1.98732      4.03839        -0.002393     -0.154209      0.166311
O	      5.97419      0.04872      4.04588         0.156474     -0.076814      0.082260
O	      4.05232      4.14855     -2.09967        -0.000527     -0.002612      0.000098
O	      2.13166     -0.08006      0.08081        -0.168758      0.081294     -0.083085
O	      2.13122     -1.99861      1.99899        -0.169243     -0.080176      0.080241
