# total energy = -77.46348623 eV
 
CRYSTAL
PRIMVEC
-2.043144 4.091159 -2.043290 
2.043094 4.091184 2.043388 
2.047909 -0.000098 -6.134803 
PRIMCOORD
16 1
Li	     -1.98397      4.08843     -2.10238         0.064649      0.004214     -0.058147
Li	      0.00259      6.13591     -2.04811         0.000656      0.001286      0.001858
Li	     -0.05424      4.08895     -4.03023        -0.067623      0.003123      0.054181
Li	      0.00299      2.04550     -2.04415        -0.004004     -0.001895      0.001357
Ni	      2.04776      6.13624     -4.09120         0.005086      0.007506      0.010416
Ni	      0.01520      4.09174     -0.01590        -0.003463     -0.012975      0.014799
Ni	      2.03223      4.09139     -2.03342         0.023845     -0.004995      0.008574
Ni	      2.04791      2.04546     -4.09088         0.000409     -0.001720     -0.000548
O	      2.12195      2.18198     -2.11604        -0.091582     -0.174291      0.074010
O	      0.07696      4.09098     -1.97415        -0.152132      0.001324     -0.144789
O	      2.11799      6.00045     -2.12052        -0.086077      0.177413      0.078151
O	      1.97387      2.18031     -6.06533         0.087195     -0.167281     -0.078240
O	      1.97305      4.09120     -0.07667         0.143303     -0.000414      0.132782
O	      0.00445      4.09222     -6.13359        -0.001291     -0.000528     -0.002080
O	      1.97790      6.00209     -6.06047         0.081623      0.174794     -0.089837
O	      2.04811      4.09023     -4.08839        -0.000596     -0.005563     -0.002488
