# total energy = -76.62551203 eV
 
CRYSTAL
PRIMVEC
0.000067 2.047483 2.047381 
8.199833 2.075893 -2.075578 
-0.000622 4.152796 -4.152613 
PRIMCOORD
16 1
Li	      0.00338      2.07055      2.02326        -0.000502     -0.022107      0.022012
Li	      1.91120      2.05856     -0.01478         0.011358      0.001184      0.002181
Li	      6.29220      4.13571     -2.09118        -0.008731      0.001236      0.000675
Li	      0.00151      2.05108     -2.05011        -0.002471      0.019258     -0.023228
Ni	      4.10269      4.12217     -0.02807        -0.002017      0.000782      0.000793
Ni	      2.00258      4.13666     -2.08910        -0.114425      0.006760     -0.007761
Ni	      4.10236      6.19862     -2.10403        -0.001235      0.001403     -0.001778
Ni	      6.20163      6.21339     -4.16653         0.120172     -0.005763      0.008685
O	      4.09042      4.13672     -2.08954         0.099083     -0.009637      0.008418
O	      6.08309      6.30851     -2.21349         0.097025     -0.106451      0.106224
O	      4.11588      6.21338     -4.16639        -0.104373      0.008588     -0.008369
O	      6.08320      4.01333      0.08019         0.094450      0.101669     -0.099929
O	      0.00163      2.06066     -0.01334         0.002217      0.000158     -0.001851
O	      2.12201      4.23069     -0.13589        -0.092531     -0.100817      0.101642
O	      0.00189      4.13741     -2.08956        -0.001461     -0.000723     -0.001144
O	      2.12149      4.04246     -4.04203        -0.096560      0.104460     -0.106570
