# total energy = -76.95222239 eV
 
CRYSTAL
PRIMVEC
-0.000061 2.036703 2.036612 
4.112942 -4.153059 4.152821 
4.112609 4.152778 -4.152757 
PRIMCOORD
16 1
Li	      0.11625      0.00202      0.00305         0.017046     -0.000926     -0.002077
Li	      2.05711      1.98341      0.05810        -0.001201      0.017945     -0.015581
Li	      2.05673      0.05790      1.98477        -0.000243     -0.017769      0.016554
Li	      3.99715      2.03517      2.03642        -0.019149      0.004226      0.002690
Ni	      4.11267      2.07808     -2.07413         0.001486     -0.002642      0.001840
Ni	      6.16889      2.04579     -0.00519         0.002395     -0.078815      0.080547
Ni	      4.11298     -2.07538      2.07871        -0.001663     -0.002475      0.003307
Ni	      6.16912     -0.00724      2.04594        -0.000881      0.080238     -0.078964
O	      4.20795      2.14965     -0.10773        -0.076043     -0.109783      0.106292
O	      4.20761     -0.11076      2.14901        -0.073697      0.110899     -0.108507
O	      6.16863      0.00350      0.00438         0.000478      0.005276      0.007176
O	      4.01749     -2.00371      4.04531         0.076006     -0.109557      0.105469
O	      6.16924      0.03502      4.03599        -0.000387     -0.151713      0.144968
O	      4.01757      4.04287     -2.00379         0.076376      0.110145     -0.109130
O	      2.05675      0.00204      0.00268        -0.000080     -0.000115      0.002131
O	      6.16916      2.00000     -1.99830        -0.000444      0.145066     -0.156716
