# total energy = -77.35373306 eV
 
CRYSTAL
PRIMVEC
-2.044080 4.128887 -2.044149 
2.018705 4.103821 2.018719 
2.047285 0.012539 -6.110206 
PRIMCOORD
16 1
Li	      4.04920      4.11578     -4.07086        -0.007048      0.000714      0.007531
Li	     -0.06866      6.17926     -1.99675        -0.003169      0.001329     -0.002432
Li	      2.07872      6.18126     -4.14452         0.001645     -0.002692      0.003905
Li	      0.00612      4.11596     -0.02653         0.007143     -0.000482     -0.008056
Ni	     -0.00423      4.12850     -4.08031         0.004941     -0.000661      0.003498
Ni	     -0.03477      2.06400     -2.00526        -0.123053      0.005029      0.117440
Ni	      2.02762      4.11599     -2.04860        -0.006441     -0.001433     -0.007554
Ni	      2.07037      2.06389     -4.11051         0.122422      0.002568     -0.120346
O	      1.98621      2.05059     -2.09104         0.116253     -0.026932      0.116896
O	      0.11765      4.00406     -2.07888        -0.100093      0.110615      0.092638
O	      0.05107      2.07752     -4.02611        -0.117666      0.027095     -0.117661
O	      2.04126      2.07032     -6.11238         0.000796     -0.000312      0.001488
O	      2.05735      4.22808     -0.13910        -0.087067     -0.111711      0.107849
O	     -0.12551      4.25461     -6.08186         0.103791     -0.115379     -0.089610
O	      2.02786      6.18652     -6.12570         0.000728      0.000448     -0.000055
O	      1.99747      4.00232     -3.95897         0.086818      0.111803     -0.105529
