# total energy = -77.10042161 eV
 
CRYSTAL
PRIMVEC
4.151279 -0.000018 0.000016 
-0.000039 4.018951 -4.020068 
-0.000048 6.094719 2.076200 
PRIMCOORD
16 1
Li	      0.00088      0.05268     -0.04889         0.000726      0.022843     -0.019026
Li	      2.07697      2.00066     -0.00866        -0.002142     -0.042469     -0.043735
Li	      2.07683      6.09928      0.07592        -0.001632      0.042234      0.042907
Li	      0.00075      8.04666      0.11566        -0.000082     -0.023850      0.018549
Ni	      0.00135      4.04972      0.03336        -0.003778     -0.005653      0.002908
Ni	      2.07633      4.02507     -2.00167         0.003951      0.022473      0.023277
Ni	      0.00046      6.05904     -1.97653         0.006784      0.002190     -0.004593
Ni	      2.07642      8.09359     -1.95120         0.001996     -0.025275     -0.025596
O	      0.00124      2.15265      0.14608        -0.000794     -0.163136     -0.141140
O	      2.07669      4.04969      0.03469         0.001139      0.000734     -0.001471
O	      0.00120      4.15180     -1.90124        -0.003849     -0.161206     -0.138396
O	      2.07685      6.06039     -1.97663        -0.002462     -0.003360      0.001983
O	      0.00093      5.94630     -0.07958         0.000135      0.165747      0.143465
O	      2.07639      8.18181     -0.01191        -0.000074     -0.155110      0.166747
O	      0.00090      7.96643     -2.05188        -0.000205      0.164879      0.138744
O	      2.07632     10.03007     -1.86632         0.000288      0.158959     -0.164624
