# total energy = -76.30035736 eV
 
CRYSTAL
PRIMVEC
4.084394 0.000103 -0.001678 
0.001678 0.000008 -4.084445 
2.043187 8.289509 -2.043069 
PRIMCOORD
16 1
Li	      2.04564      8.28901     -2.04710        -0.000524     -0.000583      0.000603
Li	      2.04709      2.01697     -4.08929        -0.000384     -0.036699     -0.000590
Li	      2.04636      6.27101     -4.08889         0.001216      0.039069     -0.000475
Li	      4.08880      8.28818     -4.09009        -0.001687      0.001367      0.000262
Ni	      4.08917      4.14419     -4.08999        -0.000514      0.000380      0.000137
Ni	      4.08831      2.01885     -2.04788         0.002750     -0.087907     -0.002820
Ni	      2.04605      4.14409     -2.04694        -0.000246      0.000606      0.000038
Ni	      4.08778      6.26958     -2.04754        -0.001857      0.085038      0.001876
O	      2.04622      2.21615     -2.04706        -0.001223      0.011776     -0.001539
O	      4.08823      4.14428     -2.04771         0.000574      0.000196     -0.001077
O	      4.08781      8.17235     -2.04782         0.002207      0.188809     -0.001585
O	      4.08932      2.21616     -4.09013         0.001361      0.011885      0.000626
O	      2.04563      6.07214     -2.04677        -0.000061     -0.012459      0.003874
O	      2.04695      4.14421     -4.08909         0.000513     -0.000070     -0.001154
O	      4.08877      6.07232     -4.08981        -0.002855     -0.013171      0.001545
O	      4.08776      0.11601     -2.04784         0.000733     -0.188236      0.000280
