# total energy = -77.16864958 eV
 
CRYSTAL
PRIMVEC
0.000264 2.024585 2.025101 
4.104838 -2.083625 2.084725 
4.080997 6.228298 -6.229442 
PRIMCOORD
16 1
Li	      4.10729      6.20519     -6.20244         0.047831      0.013523     -0.016125
Li	      2.03913      2.02464      0.00218        -0.001638     -0.028454      0.028816
Li	      4.02807      4.12540     -0.07584        -0.029013     -0.025206      0.027312
Li	      2.10224      0.00140      2.02731        -0.007149      0.005681     -0.008150
Ni	      6.13587      4.12266     -2.09722        -0.027706     -0.010033      0.012954
Ni	      4.08352     -0.00675      0.00839        -0.007331     -0.010475      0.010498
Ni	      6.13144      2.03249     -0.00604         0.025462      0.038230     -0.036601
Ni	      4.12255      4.16993     -4.16913         0.036004      0.029729     -0.030803
O	      4.08367      4.15862     -2.13150        -0.036517     -0.093425      0.085540
O	      4.11200      1.90885      0.11780        -0.053665      0.164666     -0.164611
O	      6.12257      2.06414     -2.06115        -0.082172      0.003651     -0.004850
O	      4.12851      0.12744      1.89870         0.011252     -0.172166      0.173679
O	      1.91387      2.14632     -2.14655         0.135109     -0.088962      0.090038
O	      4.01150      6.15984     -4.13522         0.093201      0.088072     -0.083113
O	      2.23411     -0.00509      0.00728        -0.221592     -0.011294      0.011810
O	      6.12881      6.07820     -2.02912         0.117925      0.096463     -0.096395
