# total energy = -91.23702323 eV
 
CRYSTAL
PRIMVEC
-0.000001 2.066612 2.066755 
8.300341 2.123014 -2.123150 
0.013260 4.219414 -4.219694 
PRIMCOORD
16 1
Li	      4.31979      4.24352     -0.11151         0.058833      0.001831     -0.001650
Li	      6.10298      4.21448     -2.14959         0.025562     -0.049747      0.052098
Li	      2.20561      4.15782     -2.08735        -0.017625     -0.020841      0.018697
Li	      6.16369      6.31835     -4.25268        -0.002189      0.054469     -0.055109
Mn	      8.19392      4.16294     -0.03034        -0.179169     -0.021503      0.021292
Mn	      2.10948      2.10678     -0.04107         0.010741     -0.004040      0.003677
Ni	      8.19710      6.32797     -2.19549         0.008630      0.012562     -0.012301
Ni	      4.25259      6.23412     -2.10174         0.025501      0.039944     -0.039357
O	      6.25568      6.31802     -2.18587        -0.088768     -0.001624      0.003698
O	      0.11779      4.22324     -2.15709         0.035968      0.074524     -0.075430
O	      6.38866      4.18624     -0.05381         0.061391     -0.000245      0.000618
O	      0.11361      2.09123     -0.02565         0.079692     -0.060805      0.059857
O	      2.02075      4.04649      0.08587         0.088766     -0.033273      0.032914
O	      4.11304      4.24925     -2.18356        -0.032441     -0.103690      0.104263
O	      1.96724      6.41926     -2.28733         0.008431      0.041055     -0.040974
O	      3.98535      6.23986     -4.17425        -0.083324      0.071382     -0.072293
