# total energy = -76.44735282 eV
 
CRYSTAL
PRIMVEC
0.000114 2.039998 2.040330 
4.095993 -2.069978 2.070566 
4.129174 6.243662 -6.244560 
PRIMCOORD
16 1
Li	      4.13657      0.03749      4.04190         0.015535      0.029319     -0.029702
Li	      2.05537      2.05941     -0.02365         0.000522      0.001605      0.001683
Li	      4.06910      2.01622     -2.01545        -0.016025     -0.031403      0.033760
Li	      4.10299      0.00634     -0.00602         0.001268      0.001608     -0.001373
Ni	      6.16731      4.14976     -2.10764         0.002838     -0.001676     -0.001572
Ni	      2.08887      0.00814      2.03258        -0.078257     -0.026162      0.028299
Ni	      6.11704      2.04581     -0.00480         0.071741      0.029102     -0.029924
Ni	      4.11932      4.16444     -4.16299         0.000690      0.004527     -0.007364
O	      4.04508      4.25248     -2.21445         0.010726     -0.122740      0.129270
O	      4.25580      2.07470     -0.03386        -0.186199      0.009530     -0.009227
O	      6.16949      2.11831     -2.11691        -0.113251     -0.055239      0.051835
O	      3.94976     -0.02120      2.06148         0.188000     -0.011587      0.011568
O	      2.08968      2.17477     -2.17450        -0.015292     -0.105918      0.105165
O	      4.19389      6.11676     -4.07161        -0.010230      0.119866     -0.126732
O	      2.02045      1.94861      2.13099         0.012027      0.104733     -0.102791
O	      6.16497      4.14118     -4.13858         0.115908      0.054436     -0.052896
