# total energy = -76.76442541 eV
 
CRYSTAL
PRIMVEC
-0.001736 2.046818 2.035326 
4.045271 -2.092205 2.077108 
4.035465 6.260086 -6.228678 
PRIMCOORD
16 1
Li	      0.07618     -0.00178      0.00961         0.023565      0.017593     -0.010948
Li	      2.00452      2.04728     -0.00310        -0.014343      0.015682     -0.016427
Li	      2.09399     -0.00651      2.02720        -0.024720     -0.003363     -0.004111
Li	      6.01156      2.03701      0.02294         0.018252     -0.037506      0.034182
Ni	      3.96152      4.09188     -0.01832        -0.069436     -0.024903      0.027110
Ni	      6.05600      4.16169     -2.10384         0.010462      0.028620     -0.025569
Ni	      4.06147     -0.01363      0.01748         0.143250      0.067140     -0.058943
Ni	      4.02125      4.19467     -4.17028        -0.011018     -0.042306      0.031893
O	      4.10496      4.11749     -2.07057        -0.098724      0.039626     -0.025355
O	      4.03932      2.03341     -0.01751        -0.000766     -0.012851      0.036231
O	      6.02496      4.15523     -0.20414        -0.012707     -0.112737      0.147136
O	      4.07844      0.10610      1.95682        -0.018813     -0.129270      0.111126
O	      1.96504      2.13185     -2.11296         0.034954     -0.000670      0.007844
O	      3.91395      6.19586     -4.13718         0.151235      0.086062     -0.109563
O	      2.17859      2.01174      2.06408        -0.226846      0.004988     -0.004916
O	      6.01052      4.13673     -3.98665         0.095654      0.103897     -0.139691
