# total energy = -76.63476965 eV
 
CRYSTAL
PRIMVEC
0.000105 2.049607 2.049363 
4.063254 -2.102548 2.102502 
4.008040 6.253439 -6.252498 
PRIMCOORD
16 1
Li	      3.99338      6.22698     -6.22553         0.049910     -0.003419      0.002305
Li	      1.95824      1.99253      0.05885        -0.018300     -0.025125      0.023637
Li	      2.04389     -0.00036      2.05202        -0.050464      0.003243     -0.003775
Li	      4.07861      6.28330     -2.18450         0.019687      0.022989     -0.022312
Ni	      3.99124      4.09969     -0.00075        -0.083850     -0.047729      0.050477
Ni	      6.07717      4.15387     -2.10420        -0.060305     -0.016558      0.016675
Ni	      4.02284     -0.03047      0.03156         0.065330      0.015559     -0.016129
Ni	      2.04564      4.17514     -2.12570         0.086310      0.049450     -0.049619
O	      4.09458      4.03839     -1.98895        -0.024242      0.099061     -0.100236
O	      4.05280      2.03549      0.01430        -0.070858      0.004645     -0.005173
O	      6.04735      4.13676     -0.03831         0.070265     -0.003451      0.006204
O	      4.06583      0.09582      1.95511         0.012501     -0.132668      0.133530
O	      1.94255      4.23645     -0.13736         0.019603     -0.097762      0.099554
O	      3.87620      6.25530     -4.20535         0.221313     -0.011470      0.011570
O	      2.16075     -0.02897      0.03060        -0.224588      0.010455     -0.012729
O	      6.03443      6.07736     -1.97808        -0.012314      0.132781     -0.133979
