# total energy = -77.44443466 eV
 
CRYSTAL
PRIMVEC
2.029510 4.044450 2.029816 
2.047429 -4.062603 2.047368 
4.100977 -0.000165 -4.101200 
PRIMCOORD
16 1
Li	      0.04382     -0.00015     -0.04340         0.031850     -0.000819     -0.031703
Li	      1.99641      2.02272      0.03382        -0.011383     -0.001533      0.011929
Li	      6.10739     -0.01822      2.04646        -0.004509     -0.000984      0.005591
Li	      2.05885     -0.00931      2.01912         0.003482      0.000164     -0.003545
Ni	      4.12215      2.02128     -2.09186         0.006409      0.005811     -0.006994
Ni	      2.04528     -2.03125      0.00301        -0.039840     -0.001272      0.033336
Ni	      4.08009     -0.00933     -0.00304        -0.033584     -0.001316      0.037649
Ni	      4.12892     -2.03186     -2.08058        -0.022009      0.000511      0.012327
O	      4.09772     -1.88276     -0.04562         0.014442     -0.113728      0.119063
O	      2.19181     -0.11841     -0.01416        -0.117039      0.154632      0.002926
O	      4.12316      1.86370     -0.02312        -0.116776      0.116442     -0.011721
O	      6.10350     -2.10567     -2.06615         0.171105      0.010347      0.009335
O	      4.09140      0.10013      1.88542        -0.002035     -0.153890      0.116125
O	      4.07346      0.02711     -1.89489         0.002281      0.017518     -0.125515
O	      6.14590      2.08661     -2.02613        -0.004540     -0.008311     -0.166681
O	      5.97223     -0.04616      0.00380         0.122145     -0.023574     -0.002123
