# total energy = -76.27009756 eV
 
CRYSTAL
PRIMVEC
-4.089845 -0.000014 0.000000 
0.000000 -0.000010 4.065432 
0.000018 8.212446 0.000005 
PRIMCOORD
16 1
Li	     -4.08981      0.05615      4.06494         0.000248      0.029085     -0.000420
Li	     -2.04475      1.97265      4.06489         0.000049     -0.074236      0.001491
Li	     -4.08950      4.04068      4.06508         0.000002     -0.038317     -0.000599
Li	     -2.04487      0.08284      2.03224         0.000219      0.033873     -0.000466
Ni	     -2.04469      6.18348      4.06504        -0.000156      0.157224      0.000356
Ni	     -4.08965      2.01184      2.03222        -0.000182     -0.105022      0.000116
Ni	     -2.04464      4.07771      2.03236        -0.000029     -0.021285     -0.000626
Ni	     -4.08962      6.23319      2.03231        -0.000145      0.119875      0.000527
O	     -4.08979      0.05466      2.03223         0.000155     -0.102453     -0.000859
O	     -2.04472      2.16212      2.03222        -0.000260      0.008290      0.000689
O	     -4.08957      4.04263      2.03236         0.000016      0.084696     -0.000110
O	     -2.04483      8.03584      4.06499         0.000348      0.157446      0.000071
O	     -4.08966      2.02621      4.06493        -0.000002      0.095262      0.000387
O	     -2.04468      6.04097      2.03236         0.000490     -0.069121      0.000155
O	     -2.04461      4.28720      4.06506        -0.000464     -0.183465      0.000278
O	     -4.08961      6.18909      4.06506        -0.000288     -0.091851     -0.000990
