# total energy = -77.54107126 eV
 
CRYSTAL
PRIMVEC
2.032158 4.086256 2.074169 
2.013018 -4.069710 2.060338 
4.059524 0.002576 -4.148653 
PRIMCOORD
16 1
Li	      0.09450      0.00065     -0.06143         0.024081      0.007038     -0.028049
Li	      2.03134      2.04227     -0.00149         0.001071      0.000835      0.002788
Li	      5.98381      0.01488      2.12104        -0.027886     -0.005833      0.030737
Li	      4.05347      2.05126      2.06486         0.001300     -0.002128      0.001736
Ni	      4.06221      2.04383     -2.07365        -0.004173      0.003714     -0.007590
Ni	      2.04354      0.00796      2.04594         0.056002     -0.001156     -0.074097
Ni	      4.03347      0.00699      0.01505        -0.045426      0.021566      0.076855
Ni	      4.05279     -2.03380     -2.08061        -0.007361     -0.005513     -0.006899
O	      4.16066     -1.92704     -0.06377        -0.108331     -0.159534      0.067313
O	      2.16342     -0.04944      0.01339        -0.136784     -0.003299     -0.136232
O	      4.06691      1.94529     -0.16441        -0.075830      0.129076      0.103279
O	      6.06953     -1.92638     -1.92305         0.084475     -0.139608     -0.097842
O	      3.91391      0.06533      2.04853         0.133471      0.001508      0.126843
O	      4.19293     -0.01105     -2.10480        -0.119045     -0.034395     -0.081024
O	      5.97628      1.94519     -2.02380         0.109110      0.153019     -0.063569
O	      5.94390      0.02937      0.01596         0.115328      0.034708      0.085750
