# total energy = -91.86700501 eV
 
CRYSTAL
PRIMVEC
0.000007 2.076517 2.075868 
4.088140 -4.265314 4.264131 
4.078629 4.261328 -4.260097 
PRIMCOORD
16 1
Li	      4.25652      4.13284      0.01842         0.002841     -0.014032      0.015344
Li	      2.03804     -0.23050      2.30671        -0.029122     -0.015055      0.015100
Li	      6.05626      2.21506     -0.13774        -0.006457      0.015117     -0.014636
Li	      6.10660      0.06295      2.01588         0.023962      0.001420     -0.002146
Mn	      8.06360     -0.02272      0.02460        -0.015849     -0.016418      0.015280
Mn	      2.07458      2.11038     -0.03298         0.077114      0.014715     -0.014201
Ni	      4.17071     -0.03309      0.03420         0.000456      0.011200     -0.010555
Ni	      3.97111     -2.04342      2.04431         0.079855     -0.050387      0.050445
O	      2.05439     -2.14288      2.14304        -0.160040     -0.006501      0.008509
O	      6.23533     -0.01038      0.01239         0.144443     -0.001065     -0.000435
O	      4.16429     -2.24746      4.32382         0.009165     -0.066701      0.066283
O	      1.98980      1.96962     -1.96867         0.058637     -0.050229      0.050382
O	      4.08903      4.40588     -2.32630        -0.020401      0.035653     -0.036683
O	      1.96964      0.14462     -0.14298        -0.076373      0.033041     -0.033683
O	      3.94175      2.04035      0.03683        -0.107657      0.099651     -0.099214
O	      4.13628     -0.01151      2.08863         0.019426      0.009591     -0.009791
