# total energy = -77.60476067 eV
 
CRYSTAL
PRIMVEC
2.024394 4.097689 2.047725 
2.024579 -4.097525 2.047327 
4.056771 -0.000224 -4.103148 
PRIMCOORD
16 1
Li	      2.02578     -4.09115      2.04609         0.000432     -0.012524      0.000199
Li	      4.05211     -2.04579      2.04446         0.000826     -0.001746     -0.000791
Li	      4.05427      4.09606     -0.00504        -0.000258      0.010671     -0.000029
Li	      4.05602     -2.04656     -2.05487        -0.000534     -0.000257     -0.000410
Ni	      6.08037     -2.04670     -0.00745         0.000268      0.002582      0.004343
Ni	      2.02563      0.02622      2.04633        -0.001713      0.012202      0.001673
Ni	      2.02762     -2.04697     -0.00313         0.000011      0.011430     -0.000152
Ni	      4.05388     -0.02185     -0.00519         0.000034     -0.006136      0.000485
O	      4.05347     -1.91673     -0.00514        -0.002895     -0.130179     -0.000221
O	      2.13759     -0.11447     -0.02050        -0.124279      0.091412     -0.096368
O	      4.05393      1.88414     -0.00588        -0.000207      0.136474     -0.003967
O	      2.02552     -1.87953      2.04745         0.000548     -0.137001      0.002038
O	      3.94206      0.11933      2.06193         0.124497     -0.102632      0.097407
O	      4.16585      0.11906     -2.07229        -0.122989     -0.096070     -0.098201
O	      2.02615      1.92109      2.04651         0.001999      0.129681     -0.001325
O	      5.97024     -0.11470      0.01051         0.124259      0.092095      0.095318
