# total energy = -76.55675103 eV
 
CRYSTAL
PRIMVEC
0.000036 2.042377 2.042441 
8.222682 0.000027 0.000107 
-0.000007 4.158144 -4.158300 
PRIMCOORD
16 1
Li	      0.12091      2.04023      2.03944         0.021912      0.001484      0.002485
Li	      2.05388      2.03639      0.00921         0.002510     -0.005011     -0.001727
Li	      3.98772      2.04180      2.04098        -0.020321      0.000839      0.001205
Li	      2.05680      4.16588     -2.12589        -0.003862      0.003046      0.002889
Ni	      4.04893      2.08013     -2.07809        -0.071402     -0.012347      0.006326
Ni	      6.16667      4.15886     -2.11530        -0.014533      0.055324     -0.058014
Ni	      6.16505      2.04249      0.00146         0.022639     -0.058802      0.053219
Ni	      0.06054      2.07925     -2.07929         0.075611      0.017298      0.007321
O	      4.18677      2.16597     -0.12170        -0.101242     -0.071249      0.072565
O	      6.16577      2.07972     -2.07838         0.000422     -0.001338      0.003090
O	      4.18607      4.03510     -1.99083        -0.085144      0.084081     -0.084683
O	      6.16789      4.15777     -4.15744        -0.003125      0.007276     -0.001154
O	      8.14653      2.16782     -0.12367         0.081727     -0.087435      0.076059
O	      2.05510      2.08012     -2.07921        -0.001882     -0.000655     -0.000436
O	      8.14538      4.03539     -1.99125         0.099582      0.068975     -0.081090
O	      2.05467      0.00085     -0.00049        -0.002893     -0.001485      0.001946
