# total energy = -77.25540768 eV
 
CRYSTAL
PRIMVEC
2.035078 4.085779 2.035691 
2.035828 -4.085968 2.035292 
4.091443 -0.000545 -4.091514 
PRIMCOORD
16 1
Li	      0.00636      0.00110      0.00448         0.005232      0.000188      0.003193
Li	      1.98371      2.04317      0.05884        -0.000410      0.000098     -0.001957
Li	      2.04208      0.00086      2.04003         0.008109      0.000784      0.007416
Li	      4.15234     -2.04222     -2.10953        -0.001879      0.002095      0.000342
Ni	      6.11154      0.00063      2.01776        -0.003260      0.001983      0.005451
Ni	      4.12945      2.04563     -2.07628         0.038742      0.004978     -0.033715
Ni	      2.01737     -2.04390      0.03612        -0.031942     -0.005424      0.038188
Ni	      4.07573      0.00104     -0.01763        -0.000183     -0.002261     -0.004362
O	      3.97466     -2.02318     -0.00460         0.086842     -0.014918     -0.000186
O	      2.07523     -0.12920     -0.13983        -0.090846      0.120116      0.120790
O	      4.08890      2.02493     -0.11910        -0.000753      0.012501      0.089122
O	      6.12788     -1.99195     -1.96249         0.006715      0.017112     -0.101773
O	      4.19967      0.12715      1.98345        -0.126800     -0.126552      0.091382
O	      3.95347      0.13095     -2.01842         0.124400     -0.120326     -0.087495
O	      2.13105      1.99345      2.03455        -0.102563     -0.018719      0.004665
O	      6.07737     -0.12572      0.10626         0.088595      0.128342     -0.131060
