# total energy = -77.56892226 eV
 
CRYSTAL
PRIMVEC
2.032350 4.119257 2.022012 
4.079489 -4.126029 -0.001411 
4.073741 -0.006814 -4.039533 
PRIMCOORD
16 1
Li	      2.03005      4.04113      1.98658         0.016419     -0.013827     -0.019899
Li	      2.04936      2.05468      0.00995         0.021402      0.009811      0.018313
Li	      2.02265      0.01538     -1.97394        -0.014044      0.006769      0.020692
Li	      2.03659     -2.04379     -0.01269        -0.008605      0.002996     -0.010997
Ni	      8.12729     -2.08144     -2.04482        -0.055743     -0.014877     -0.041378
Ni	      4.06992     -0.00033      0.00580         0.003975      0.018621      0.007840
Ni	      4.08355     -2.07042     -2.00162         0.070627      0.044313      0.055873
Ni	      6.12644     -0.00005     -2.02556         0.008594      0.019796     -0.001420
O	      4.07852     -1.88586     -0.01776         0.008840     -0.104694     -0.000586
O	      5.99576      0.01734     -0.08096         0.076779     -0.098092      0.102962
O	      2.18556      0.02832      0.09763        -0.123074     -0.010222     -0.138170
O	      4.12629      1.89068     -0.03501        -0.113921      0.093193      0.098133
O	      6.09379     -1.90843     -2.02736        -0.001085     -0.150792     -0.000515
O	      8.18652     -0.06771     -2.16438         0.111324      0.087915      0.123203
O	      4.02059     -0.00327     -1.89481        -0.080229     -0.006972     -0.084270
O	      6.06305      1.91197     -1.95530         0.078740      0.116061     -0.129780
