# total energy = -77.35228594 eV
 
CRYSTAL
PRIMVEC
2.037065 4.025028 2.006493 
4.133390 -4.057625 0.004564 
4.137348 0.008394 -4.093967 
PRIMCOORD
16 1
Li	      0.05261      0.03151     -0.00822        -0.000977     -0.006753     -0.027712
Li	      6.18702     -2.04241     -0.01666        -0.000060      0.000336     -0.000150
Li	      8.18699     -0.05872     -0.02884         0.003599      0.006355      0.027496
Li	      4.12018     -0.01362     -0.01895        -0.000012      0.000599     -0.001743
Ni	      8.25537     -2.03813     -2.06365         0.002211     -0.003623      0.001083
Ni	      4.09435      1.99018      1.97419        -0.055887     -0.047765     -0.067856
Ni	      4.14576     -2.01765     -2.01194         0.051757      0.053790      0.065697
Ni	      6.18934     -0.00970     -2.06593        -0.022610      0.010210     -0.000227
O	      3.99966     -2.07748      0.04445         0.140159     -0.000873     -0.013413
O	      6.20479      0.07583     -0.16776        -0.004843     -0.143034      0.085783
O	      2.03505     -0.10314      0.12975         0.009452      0.140101     -0.085205
O	      4.24017      2.05026     -0.08233        -0.139093      0.000486      0.014251
O	      6.17307     -1.88861     -2.03779         0.016600     -0.104528      0.089838
O	      8.07911      0.01597     -2.06879         0.097907     -0.021157     -0.004894
O	      4.29810     -0.03470     -2.06299        -0.085189      0.017604      0.005126
O	      6.20432      1.86986     -2.09415        -0.013013      0.098252     -0.088074
