# total energy = -77.20280026 eV
 
CRYSTAL
PRIMVEC
1.998513 4.114016 1.998631 
4.064489 -4.143436 -0.008319 
4.072725 -0.000084 -4.072793 
PRIMCOORD
16 1
Li	      6.08292      4.06418     -2.07309         0.020711     -0.017080      0.007456
Li	      2.02050      2.00727     -0.00894         0.008034     -0.017409      0.019625
Li	      2.02081     -2.02106     -0.00879        -0.019822      0.017460     -0.007730
Li	      6.08335      0.03605     -2.07267        -0.007785      0.017460     -0.021427
Ni	      8.06693     -0.05362     -0.05452        -0.116841     -0.059027     -0.059789
Ni	      8.11197     -2.11047     -2.09787        -0.061663     -0.062632     -0.121309
Ni	      4.05653      0.01090      0.00785         0.055791      0.063859      0.116424
Ni	      4.10146     -2.04639     -2.03524         0.117651      0.068412      0.046011
O	      4.11140     -1.93778     -0.05967        -0.001164     -0.125512      0.033542
O	      6.03294      0.11911      0.01773         0.026510     -0.125108      0.000357
O	      2.13526     -0.00699     -0.12428        -0.152843      0.000695      0.155493
O	      4.07749      2.04984     -0.06858        -0.125621     -0.000425      0.130729
O	      6.13664     -2.21795     -2.10800        -0.030624      0.119531      0.002338
O	      8.05698     -0.16079     -2.02995         0.001996      0.119907     -0.030180
O	      4.02528     -0.00726     -2.01468         0.128780     -0.000524     -0.123526
O	      5.96773      2.05010     -1.95853         0.156890      0.000394     -0.148014
