# total energy = -76.98201232 eV
 
CRYSTAL
PRIMVEC
0.000018 4.049459 0.000056 
4.144886 0.000085 4.043979 
4.144795 -0.000028 -4.043875 
PRIMCOORD
16 1
Li	      0.01945      0.00181     -0.00041         0.010624     -0.000062      0.005300
Li	      2.07254      2.02655      0.04251         0.000128      0.000233      0.025457
Li	      4.12503      0.00188     -0.00039        -0.010973     -0.000142      0.005105
Li	      2.07258      0.00207      1.93775        -0.000411     -0.000252     -0.045498
Ni	      6.21694      2.02661     -0.01869         0.000357      0.000157      0.071550
Ni	      4.11403      2.02652      2.01677        -0.023028      0.001952     -0.017257
Ni	      2.07215      0.00187     -1.98376         0.000016     -0.001040     -0.009742
Ni	      4.17524      2.02647     -2.02758         0.022886      0.001855     -0.012356
O	      2.07232      0.00177     -0.11805        -0.001329      0.001489      0.187825
O	      4.33618      2.02670     -0.00730        -0.180182     -0.000641      0.015792
O	      4.29804      0.00195      2.03594        -0.170927     -0.002201     -0.005546
O	      6.21703      2.02667      1.90837        -0.000403      0.000149      0.121125
O	      3.99111      0.00192     -2.00795         0.170450     -0.001761     -0.007608
O	      6.21690      2.02678     -1.90227         0.001703     -0.000334     -0.216809
O	      6.21689      0.00185      0.14516         0.000975      0.001380     -0.132523
O	      8.09776      2.02668     -0.00723         0.180112     -0.000783      0.015184
