# total energy = -76.80217342 eV
 
CRYSTAL
PRIMVEC
0.000122 4.108738 -0.000120 
4.006777 0.000003 4.007012 
4.112176 0.000217 -4.112429 
PRIMCOORD
16 1
Li	      0.01735      4.10634     -0.01556         0.010545      0.002856     -0.011548
Li	      2.03049      2.05404     -0.02486        -0.000152     -0.002972      0.000440
Li	      4.04316      4.10868     -0.03485        -0.009865     -0.004311      0.013151
Li	      4.03400      2.05217      1.97946        -0.000447      0.000630      0.000685
Ni	      6.08961      2.05309     -0.07768         0.008651     -0.000643     -0.000954
Ni	      2.04631      4.10714      1.96226         0.026573      0.001006     -0.024747
Ni	      2.01435      4.10735     -2.01278        -0.024925      0.000438      0.025012
Ni	      4.08653      2.05290     -2.08110         0.000011     -0.000351     -0.008535
O	      2.03031      4.10806     -0.02554         0.001837     -0.001258      0.002128
O	      4.21956      2.05355     -0.21108        -0.207613     -0.001310      0.206893
O	      4.03351      4.10679      1.97845         0.000722      0.001563     -0.001617
O	      2.14273      2.05297     -2.13778        -0.125167      0.000296      0.128937
O	      4.08702      4.10724     -2.08156        -0.002426      0.001614      0.001367
O	      6.03039      2.05292     -2.02460         0.122892     -0.000846     -0.128540
O	      6.08980      4.10734     -0.07730        -0.000042      0.001111     -0.003127
O	      3.95360      2.05245     -3.95181         0.199405      0.002178     -0.199544
