# total energy = -92.99813262 eV
 
CRYSTAL
PRIMVEC
-2.079946 4.092770 -2.075891 
2.057706 4.070555 2.053998 
2.105964 0.010908 -6.231924 
PRIMCOORD
16 1
Li	      0.03455      4.09061     -4.19776         0.003957      0.006772      0.004889
Li	      2.01301      6.12747     -4.11221        -0.002448      0.001309      0.001481
Li	      0.05091      2.04749     -2.13447         0.012554      0.002003      0.011087
Li	      2.04805      2.04539     -4.11568        -0.006783      0.002167      0.001458
Mn	      4.14736      4.08240     -4.16054         0.016171     -0.010242     -0.007545
Mn	      0.02083      6.12814     -2.12154         0.007573      0.000408     -0.012294
Ni	      2.04221      4.09247     -6.19026        -0.018951     -0.002917      0.014852
Ni	      2.08998      4.08263     -2.11177         0.009181     -0.001749      0.002805
O	      0.02805      4.09496     -6.38510        -0.039916      0.000459     -0.064452
O	      1.91734      6.08959     -2.08701        -0.038883      0.131341      0.008735
O	      2.24411      4.08960     -4.17987         0.032416      0.009572      0.033239
O	      2.01923      3.96889      0.05623         0.093283     -0.028303      0.088008
O	     -0.01577      6.16778     -4.01864        -0.003433     -0.140539      0.058770
O	      0.00495      6.21370     -0.13856         0.010013      0.096058     -0.023592
O	     -0.07980      4.19493     -2.03833        -0.095810      0.027593     -0.103603
O	      0.11872      1.94988     -0.02523         0.021078     -0.093931     -0.013837
