# total energy = -77.46301709 eV
 
CRYSTAL
PRIMVEC
-0.000154 4.320523 0.000116 
3.987309 -0.000088 3.987876 
3.987394 -0.000169 -3.987962 
PRIMCOORD
16 1
Li	      0.03133      0.00200      0.03052         0.012119     -0.002010      0.013565
Li	      1.96141      2.16086      0.03199        -0.010517      0.000829      0.011244
Li	      1.96308      4.32028      1.96340        -0.013799      0.001370     -0.013961
Li	      4.01882      2.16078     -2.02383         0.011940      0.000161     -0.015982
Ni	      3.97464      0.00031     -0.01286        -0.024704      0.000971     -0.021164
Ni	      5.99395      2.16101     -0.01287         0.027198     -0.004195     -0.025976
Ni	      3.97480      2.16051      2.00651        -0.022975      0.001061      0.023998
Ni	      2.00678      0.00049     -1.98157         0.022055     -0.001464      0.027264
O	      2.09351      4.32031     -0.10037        -0.162579      0.002935      0.166964
O	      4.08266      2.16017      0.09489        -0.127673      0.003007     -0.122736
O	      4.08249      0.00062      1.89910        -0.123159     -0.002985      0.118677
O	      5.88628      2.16033      1.89818         0.123126      0.001443      0.130501
O	      3.88776      0.00028     -1.89389         0.164639     -0.000293     -0.167566
O	      2.09381      2.16073      2.09405        -0.165755     -0.000109     -0.166739
O	      5.88596      0.00014      0.09486         0.126672      0.000780     -0.124770
O	      3.88768      2.16092      3.88765         0.163413     -0.001501      0.166680
