# total energy = -77.25882039 eV
 
CRYSTAL
PRIMVEC
4.026754 -0.005530 4.114948 
-0.004915 4.071381 -4.114954 
-0.004795 4.071264 4.114838 
PRIMCOORD
16 1
Li	     -0.00372      4.07031      4.11488        -0.001233      0.000073      0.000209
Li	      2.01090      2.03405      0.00008        -0.000341     -0.001113     -0.000086
Li	      2.00333      8.13867      2.05753        -0.001401     -0.000184     -0.000673
Li	      2.00821      4.06758      2.05729        -0.001195     -0.001145      0.000653
Ni	      4.01889      6.10023      6.17230         0.001014     -0.000317      0.002154
Ni	      4.01898      6.10040      2.05741        -0.000624     -0.001201     -0.001417
Ni	      2.00524      6.10285      0.00004         0.013678     -0.000518     -0.000995
Ni	      4.02126      4.06467      4.11477        -0.000199     -0.004084      0.000774
O	      3.89963      1.97466      4.11485         0.060303     -0.084102     -0.000696
O	      4.02129      4.06479      2.21323        -0.000626     -0.000789     -0.136566
O	      2.01024      2.03180      2.21717         0.000679     -0.000998     -0.072350
O	      1.90056      4.20460     -0.00024         0.136197     -0.112251      0.000390
O	      4.02149      4.06445      6.01630        -0.001109     -0.000508      0.137348
O	      0.11651      6.15980      0.00007        -0.066818      0.088255      0.000068
O	      2.11531      3.92932      4.11502        -0.136624      0.118159     -0.000401
O	      2.00572      6.10278      1.89786        -0.001700      0.000720      0.071586
