# total energy = -72.82485335 eV
 
CRYSTAL
PRIMVEC
0.000010 1.871988 1.872046 
8.155445 1.933831 -1.933896 
0.000867 3.860275 -3.860155 
PRIMCOORD
16 1
Li	      7.73058      1.87268     -1.87000         0.745265     -0.050998     -0.050515
Li	      1.92088      1.81081     -0.03075         0.003591     -0.655080      0.553309
Li	      3.88804      1.83500     -1.83396         0.190051     -0.458746      0.256373
Li	      5.82676      3.61138     -1.83073         0.324367      0.108931      0.247833
Ni	      0.01626      1.81874     -1.81795        -1.449789     -2.517062     -1.805150
Ni	      1.95111      3.64112     -1.86274        -0.734275      0.649281     -0.497515
Ni	      3.85891      3.67078     -3.67040        -0.272920     -1.868245     -2.484633
Ni	      5.79406      5.49372     -3.71436         1.356677      4.841356     -1.956720
O	      3.86538      3.73751     -1.95798         1.325465     -1.229604      3.608852
O	      5.80241      3.77658     -3.77478         1.889856     -2.958944      0.811266
O	      3.86633      5.38315     -3.60517        -0.843640      3.858487     -1.689939
O	      5.80184      1.75206     -1.75194         0.615790     -1.602979      0.402969
O	      0.00721      1.89246     -0.11397        -0.892561     -1.667849      3.891961
O	      1.94390      3.70631     -0.15034         1.191321     -1.701107      3.600962
O	      0.00775      3.53669     -1.75673        -2.087092      3.427536     -1.506476
O	      1.94453      3.57513     -3.57442        -1.362107      1.825022     -3.382580
