# total energy = -73.80210194 eV
 
CRYSTAL
PRIMVEC
0.000010 1.881841 1.881899 
8.198368 1.944009 -1.944074 
0.000872 3.880592 -3.880472 
PRIMCOORD
16 1
Li	      7.81217      1.89244     -1.88974         0.675296     -0.050467     -0.042446
Li	      1.94115      1.82992     -0.03107        -0.015848     -0.568244      0.491151
Li	      3.92908      1.85436     -1.85332         0.140549     -0.387172      0.216116
Li	      5.88825      3.64949     -1.85006         0.274878      0.089824      0.197087
Ni	      0.01643      1.83793     -1.83714        -1.200630     -2.144960     -1.510410
Ni	      1.97171      3.67954     -1.88240        -0.634902      0.582606     -0.448621
Ni	      3.89964      3.70952     -3.70913        -0.289025     -1.572908     -2.082699
Ni	      5.85522      5.55170     -3.75356         1.129431      4.242478     -1.764597
O	      3.90618      3.77696     -1.97865         1.197109     -1.116093      3.109096
O	      5.86366      3.81644     -3.81462         1.647629     -2.480239      0.685115
O	      3.90713      5.43997     -3.64321        -0.658401      3.339265     -1.511572
O	      5.86307      1.77055     -1.77043         0.545361     -1.500796      0.431021
O	      0.00728      1.91243     -0.11517        -0.790590     -1.471881      3.354660
O	      1.96442      3.74542     -0.15193         1.022108     -1.515050      3.107603
O	      0.00784      3.57402     -1.77527        -1.879732      2.939301     -1.322454
O	      1.96506      3.61286     -3.61214        -1.163234      1.614336     -2.909051
