# total energy = -74.64846269 eV
 
CRYSTAL
PRIMVEC
0.000010 1.891693 1.891752 
8.241292 1.954187 -1.954253 
0.000876 3.900909 -3.900788 
PRIMCOORD
16 1
Li	      7.89419      1.91231     -1.90958         0.582074     -0.047344     -0.036985
Li	      1.96153      1.84914     -0.03140        -0.024198     -0.482440      0.427961
Li	      3.97033      1.87383     -1.87277         0.120290     -0.324528      0.181155
Li	      5.95007      3.68781     -1.86948         0.231566      0.070805      0.155647
Ni	      0.01661      1.85723     -1.85643        -0.996146     -1.809508     -1.240432
Ni	      1.99241      3.71818     -1.90216        -0.548845      0.516661     -0.397052
Ni	      3.94058      3.74847     -3.74808        -0.258978     -1.297188     -1.728854
Ni	      5.91669      5.60999     -3.79297         0.934113      3.685581     -1.562618
O	      3.94719      3.81661     -1.99942         1.042222     -1.001643      2.642484
O	      5.92522      3.85650     -3.85467         1.408645     -2.095496      0.599617
O	      3.94816      5.49707     -3.68146        -0.534931      2.842483     -1.322102
O	      5.92463      1.78914     -1.78901         0.480000     -1.336394      0.393560
O	      0.00736      1.93251     -0.11638        -0.681089     -1.282642      2.855519
O	      1.98505      3.78475     -0.15353         0.864668     -1.334320      2.642041
O	      0.00791      3.61154     -1.79390        -1.644592      2.490468     -1.148281
O	      1.98569      3.65079     -3.65006        -0.974800      1.405503     -2.461660
