# total energy = -75.37071069 eV
 
CRYSTAL
PRIMVEC
0.000010 1.901546 1.901605 
8.284215 1.964365 -1.964431 
0.000881 3.921227 -3.921105 
PRIMCOORD
16 1
Li	      7.97663      1.93228     -1.92952         0.497336     -0.043927     -0.031241
Li	      1.98201      1.86845     -0.03173        -0.025102     -0.402573      0.367548
Li	      4.01179      1.89340     -1.89233         0.096009     -0.267506      0.151030
Li	      6.01221      3.72632     -1.88900         0.195541      0.054545      0.119537
Ni	      0.01678      1.87662     -1.87582        -0.826535     -1.503612     -0.999342
Ni	      2.01322      3.75701     -1.92202        -0.468533      0.442523     -0.341152
Ni	      3.98173      3.78762     -3.78722        -0.229213     -1.047822     -1.414953
Ni	      5.97848      5.66857     -3.83258         0.761774      3.157530     -1.362969
O	      3.98841      3.85647     -2.02030         0.889628     -0.882502      2.213855
O	      5.98709      3.89678     -3.89492         1.185564     -1.756869      0.530342
O	      3.98939      5.55449     -3.71991        -0.430741      2.385537     -1.145101
O	      5.98651      1.80783     -1.80770         0.420082     -1.159849      0.340197
O	      0.00744      1.95269     -0.11760        -0.572700     -1.103957      2.396656
O	      2.00578      3.82427     -0.15513         0.721499     -1.158775      2.215608
O	      0.00800      3.64926     -1.81264        -1.412975      2.080200     -0.986518
O	      2.00642      3.68891     -3.68818        -0.801636      1.207057     -2.053495
