# total energy = -75.97907940 eV
 
CRYSTAL
PRIMVEC
0.000010 1.911399 1.911457 
8.327139 1.974543 -1.974610 
0.000885 3.941544 -3.941422 
PRIMCOORD
16 1
Li	      8.05951      1.95236     -1.94957         0.415763     -0.035297     -0.027738
Li	      2.00261      1.88786     -0.03206        -0.029312     -0.332415      0.308018
Li	      4.05347      1.91307     -1.91199         0.082956     -0.216521      0.122103
Li	      6.07467      3.76504     -1.90863         0.161291      0.039434      0.088439
Ni	      0.01695      1.89612     -1.89531        -0.674067     -1.228086     -0.781454
Ni	      2.03413      3.79604     -1.94199        -0.391543      0.375907     -0.286419
Ni	      4.02310      3.82697     -3.82657        -0.192659     -0.824137     -1.137710
Ni	      6.04059      5.72747     -3.87240         0.612173      2.649207     -1.160765
O	      4.02984      3.89654     -2.04129         0.746976     -0.762757      1.820722
O	      6.04930      3.93727     -3.93539         0.984467     -1.445582      0.459308
O	      4.03084      5.61220     -3.75856        -0.345447      1.963591     -0.972348
O	      6.04871      1.82661     -1.82648         0.353238     -0.985787      0.285505
O	      0.00752      1.97298     -0.11882        -0.472734     -0.935803      1.975304
O	      2.02661      3.86400     -0.15674         0.593222     -0.988771      1.821720
O	      0.00808      3.68717     -1.83147        -1.192459      1.706102     -0.830546
O	      2.02727      3.72724     -3.72650        -0.651864      1.020917     -1.684139
