# total energy = -76.47932831 eV
 
CRYSTAL
PRIMVEC
0.000010 1.921251 1.921310 
8.370062 1.984721 -1.984788 
0.000890 3.961861 -3.961738 
PRIMCOORD
16 1
Li	      8.14281      1.97254     -1.96972         0.344853     -0.033859     -0.019514
Li	      2.02330      1.90737     -0.03239        -0.031846     -0.266841      0.253531
Li	      4.09537      1.93285     -1.93175         0.065170     -0.168034      0.094606
Li	      6.13746      3.80395     -1.92835         0.131125      0.027742      0.067722
Ni	      0.01713      1.91572     -1.91490        -0.535269     -0.978954     -0.588375
Ni	      2.05515      3.83527     -1.96206        -0.320476      0.308374     -0.240410
Ni	      4.06469      3.86653     -3.86612        -0.151557     -0.632564     -0.885708
Ni	      6.10303      5.78667     -3.91243         0.477497      2.170016     -0.971538
O	      4.07150      3.93681     -2.06239         0.611082     -0.647154      1.460741
O	      6.11183      3.97796     -3.97607         0.790601     -1.164612      0.395143
O	      4.07250      5.67020     -3.79741        -0.272211      1.580152     -0.808866
O	      6.11122      1.84549     -1.84536         0.289858     -0.805589      0.223661
O	      0.00759      1.99337     -0.12005        -0.380665     -0.773623      1.590613
O	      2.04756      3.90394     -0.15836         0.477377     -0.821248      1.464542
O	      0.00816      3.72528     -1.85040        -0.975759      1.365178     -0.689193
O	      2.04822      3.76577     -3.76502        -0.519782      0.841016     -1.346954
