# total energy = -77.19406637 eV
 
CRYSTAL
PRIMVEC
0.000010 1.940956 1.941016 
8.455909 2.005077 -2.005145 
0.000899 4.002496 -4.002371 
PRIMCOORD
16 1
Li	      8.31070      2.01320     -2.01033         0.195137     -0.021284     -0.011588
Li	      2.06502      1.94670     -0.03306        -0.020326     -0.149111      0.147465
Li	      4.17981      1.97269     -1.97158         0.035694     -0.089913      0.050940
Li	      6.26401      3.88238     -1.96811         0.073797      0.011573      0.029595
Ni	      0.01749      1.95522     -1.95438        -0.306622     -0.548058     -0.274898
Ni	      2.09753      3.91435     -2.00252        -0.190968      0.179575     -0.137377
Ni	      4.14849      3.94624     -3.94583        -0.075234     -0.320072     -0.463778
Ni	      6.22886      5.90598     -3.99309         0.261244      1.270953     -0.594488
O	      4.15544      4.01798     -2.10491         0.369056     -0.425245      0.840859
O	      6.23784      4.05998     -4.05805         0.449354     -0.679652      0.274902
O	      4.15647      5.78711     -3.87570        -0.156629      0.908087     -0.502928
O	      6.23722      1.88354     -1.88341         0.170212     -0.438345      0.086835
O	      0.00775      2.03447     -0.12252        -0.211775     -0.486151      0.920844
O	      2.08978      3.98443     -0.16163         0.278444     -0.513388      0.843156
O	      0.00833      3.80209     -1.88855        -0.571561      0.780276     -0.434606
O	      2.09045      3.84341     -3.84265        -0.299824      0.520754     -0.774933
