# total energy = -92.05203070 eV
 
CRYSTAL
PRIMVEC
4.041700 0.000000 0.000040 
0.000008 4.122150 -4.186910 
-0.000026 6.206263 2.116800 
PRIMCOORD
16 1
Li	      0.00101      4.22751      0.04348         0.000714      0.015082      0.023525
Li	      2.02190      6.16761      0.01085         0.000092      0.010551      0.000815
Li	      2.02187      4.13137     -2.02650        -0.000246     -0.000114      0.004038
Li	      2.02185      8.21138     -2.19180         0.000491      0.019116     -0.006984
Mn	      0.00100     10.23941     -2.08803        -0.000398     -0.054706     -0.018887
Mn	      2.02188      2.15151      0.01462        -0.000562      0.061565     -0.026693
Ni	      0.00102      8.28389     -0.00510        -0.000534      0.036619      0.036103
Ni	      0.00099      6.17557     -1.97323         0.000367      0.002447      0.009498
O	      2.02187      3.98357     -0.00695        -0.000647     -0.110138     -0.011547
O	      0.00104      6.24282      0.10318         0.000407     -0.137172      0.141787
O	      2.02188      6.21660     -2.21689         0.000050      0.000409     -0.058952
O	      0.00098      8.34744     -2.02757        -0.000250      0.117772     -0.172700
O	      2.02190      2.08065     -1.91491        -0.000071     -0.010922      0.084320
O	      0.00102      4.11316     -2.29499         0.001171      0.032806     -0.043306
O	      2.02187      0.11315     -0.02374        -0.000119     -0.022201      0.004116
O	      0.00104      1.94300      0.01868        -0.000463      0.038886      0.034867
