# total energy = -77.42158873 eV
 
CRYSTAL
PRIMVEC
0.000010 1.950809 1.950869 
8.498832 2.015255 -2.015323 
0.000904 4.022813 -4.022688 
PRIMCOORD
16 1
Li	      8.39528      2.03370     -2.03079         0.129851     -0.014743     -0.008623
Li	      2.08604      1.96651     -0.03339        -0.012885     -0.096950      0.100604
Li	      4.22235      1.99278     -1.99165         0.019854     -0.054891      0.028078
Li	      6.32776      3.92190     -1.98815         0.051902      0.005406      0.014899
Ni	      0.01766      1.97512     -1.97427        -0.203384     -0.364215     -0.149527
Ni	      2.11888      3.95419     -2.02290        -0.133785      0.121105     -0.091686
Ni	      4.19072      3.98641     -3.98599        -0.040205     -0.197931     -0.288152
Ni	      6.29226      5.96609     -4.03373         0.172484      0.848349     -0.409432
O	      4.19773      4.05888     -2.12634         0.258057     -0.322602      0.577206
O	      6.30133      4.10130     -4.09935         0.297510     -0.475116      0.218159
O	      4.19877      5.84601     -3.91515        -0.113959      0.619701     -0.365876
O	      6.30071      1.90271     -1.90257         0.116317     -0.252049      0.016111
O	      0.00783      2.05518     -0.12377        -0.137336     -0.356178      0.635640
O	      2.11104      4.02499     -0.16327         0.189769     -0.371059      0.577693
O	      0.00842      3.84078     -1.90778        -0.379674      0.532958     -0.319528
O	      2.11173      3.88253     -3.88176        -0.214516      0.378213     -0.535567
