# total energy = -77.57070039 eV
 
CRYSTAL
PRIMVEC
0.000010 1.960661 1.960722 
8.541756 2.025433 -2.025502 
0.000908 4.043130 -4.043005 
PRIMCOORD
16 1
Li	      8.48030      2.05429     -2.05136         0.063572     -0.008740     -0.004391
Li	      2.10717      1.98643     -0.03374        -0.004167     -0.048765      0.051481
Li	      4.26511      2.01295     -2.01182         0.011511     -0.021450      0.008578
Li	      6.39184      3.96161     -2.00828         0.025136      0.002133      0.006994
Ni	      0.01784      1.99512     -1.99426        -0.111480     -0.199622     -0.040688
Ni	      2.14034      3.99423     -2.04339        -0.078183      0.059938     -0.046099
Ni	      4.23315      4.02678     -4.02636        -0.007174     -0.089649     -0.135220
Ni	      6.35598      6.02650     -4.07458         0.093686      0.438834     -0.225964
O	      4.24025      4.09998     -2.14787         0.155562     -0.223513      0.340922
O	      6.36514      4.14283     -4.14086         0.153502     -0.291136      0.168096
O	      4.24129      5.90521     -3.95480        -0.079603      0.360569     -0.238269
O	      6.36451      1.92198     -1.92184         0.059199     -0.058424     -0.057629
O	      0.00791      2.07599     -0.12502        -0.065747     -0.239810      0.373230
O	      2.13243      4.06575     -0.16493         0.110140     -0.242608      0.340053
O	      0.00851      3.87968     -1.92710        -0.189924      0.312596     -0.217293
O	      2.13311      3.92184     -3.92107        -0.136030      0.249648     -0.323800
