# total energy = -77.66221122 eV
 
CRYSTAL
PRIMVEC
0.000010 1.980367 1.980428 
8.627602 2.045789 -2.045858 
0.000917 4.083765 -4.083638 
PRIMCOORD
16 1
Li	      0.02401      0.05000     -0.04694        -0.059820      0.005233     -0.000212
Li	      2.14973      2.02656     -0.03442         0.011751      0.028857     -0.037541
Li	      4.35127      2.05362     -2.05246        -0.011463      0.033243     -0.023153
Li	      6.52096      4.04164     -2.04884        -0.029921     -0.002518     -0.007945
Ni	      0.01820      2.03543     -2.03455         0.054163      0.084727      0.123108
Ni	      2.18357      4.07492     -2.08467         0.027688     -0.053358      0.046828
Ni	      4.31867      4.10813     -4.10769         0.055762      0.074018      0.121218
Ni	      6.48437      6.14825     -4.15689        -0.040753     -0.330517      0.127323
O	      4.32590      4.18280     -2.19126        -0.014675     -0.054794     -0.051529
O	      6.49372      4.22652     -4.22451        -0.124699      0.014511      0.078065
O	      4.32697      6.02451     -4.03469        -0.010683     -0.074564     -0.020491
O	      6.49308      1.96080     -1.96066        -0.049456      0.348042     -0.215375
O	      0.00806      2.11793     -0.12754         0.061334     -0.042372     -0.061712
O	      2.17549      2.16751     -2.14868        -0.018744     -0.015019     -0.049248
O	      0.00868      3.95805     -1.96603         0.162648     -0.046522     -0.051434
O	      2.17621      4.00107     -4.00028        -0.013133      0.031034      0.022097
