# total energy = -77.61438497 eV
 
CRYSTAL
PRIMVEC
0.000010 1.990219 1.990280 
8.670526 2.055967 -2.056037 
0.000922 4.104082 -4.103954 
PRIMCOORD
16 1
Li	      0.06739      0.06073     -0.05764        -0.122056      0.012589     -0.000051
Li	      2.17117      2.04677     -0.03476         0.022276      0.062043     -0.080659
Li	      4.39467      2.07410     -2.07293        -0.026365      0.056864     -0.036210
Li	      6.58601      4.08196     -2.06929        -0.057591     -0.004648     -0.009480
Ni	      0.01838      2.05573     -2.05484         0.139556      0.200913      0.186081
Ni	      2.20535      4.11557     -2.10546         0.075581     -0.100797      0.083675
Ni	      4.36175      4.14910     -4.14867         0.075590      0.138700      0.223394
Ni	      6.54906      6.20957     -4.19836        -0.099687     -0.699751      0.297357
O	      4.36906      4.22453     -2.21312        -0.086220      0.016544     -0.210728
O	      6.55850      4.26868     -4.26665        -0.251778      0.141900      0.032423
O	      4.37013      6.08460     -4.07493         0.015272     -0.254344      0.071434
O	      6.55785      1.98036     -1.98022        -0.100196      0.556725     -0.292900
O	      0.00815      2.13905     -0.12882         0.119583      0.041646     -0.238372
O	      2.19720      2.19904     -2.16022        -0.073292      0.081328     -0.203395
O	      0.00876      3.99754     -1.98564         0.326301     -0.187032      0.013892
O	      2.19792      4.04098     -4.04018         0.043025     -0.062681      0.163539
