# total energy = -77.51399407 eV
 
CRYSTAL
PRIMVEC
0.000010 2.000072 2.000133 
8.713449 2.066145 -2.066215 
0.000926 4.124399 -4.124271 
PRIMCOORD
16 1
Li	      0.11118      0.07156     -0.06844        -0.177614      0.018641      0.001294
Li	      2.19272      2.06708     -0.03511         0.032417      0.090842     -0.117253
Li	      4.43829      2.09469     -2.09351        -0.043066      0.077252     -0.046719
Li	      6.65138      4.12247     -2.08982        -0.087343     -0.005457     -0.008254
Ni	      0.01856      2.07613     -2.07524         0.226736      0.303525      0.238079
Ni	      2.22724      4.15642     -2.12636         0.120521     -0.147065      0.117820
Ni	      4.40504      4.19028     -4.18984         0.091251      0.191685      0.313554
Ni	      6.61406      6.27121     -4.24003        -0.151301     -1.061894      0.465376
O	      4.41242      4.26646     -2.23508        -0.152948      0.076844     -0.351154
O	      6.62359      4.31105     -4.30900        -0.378149      0.251140     -0.005259
O	      4.41351      6.14499     -4.11538         0.042810     -0.406666      0.148630
O	      6.62295      2.00002     -1.99988        -0.139308      0.772209     -0.368920
O	      0.00823      2.16029     -0.13010         0.170798      0.109465     -0.393616
O	      2.21900      2.23077     -2.17176        -0.125892      0.165234     -0.332715
O	      0.00885      4.03721     -2.00535         0.480978     -0.303422      0.066317
O	      2.21973      4.08109     -4.08028         0.090108     -0.132331      0.272821
