# total energy = -75.70269776 eV
 
CRYSTAL
PRIMVEC
0.000011 2.069040 2.069103 
9.013913 2.137392 -2.137464 
0.000958 4.266620 -4.266487 
PRIMCOORD
16 1
Li	      0.42981      0.15028     -0.14695        -0.613031      0.105105     -0.050543
Li	      2.34655      2.21210     -0.03757         0.079484      0.189041     -0.344923
Li	      4.74965      2.24164     -2.24038        -0.183622      0.225195     -0.099088
Li	      7.11800      4.41168     -2.23643        -0.441802     -0.015011      0.035244
Ni	      0.01987      2.22178     -2.22083         1.080694      0.612773      0.536165
Ni	      2.38350      4.44801     -2.27553         0.496115     -0.291790      0.201545
Ni	      4.71408      4.48426     -4.48378        -0.104592      0.326094      0.707134
Ni	      7.07807      6.71116     -4.53749        -0.531546     -3.281892      1.344332
O	      4.72198      4.56577     -2.39189        -0.311549      0.235788     -0.758049
O	      7.08827      4.61349     -4.61129        -1.216363      0.620039     -0.109926
O	      4.72217      2.30947     -0.13761         0.500442     -0.912804      0.301269
O	      7.08757      2.14033     -2.14018        -0.314849      2.350924     -0.795802
O	      0.00881      2.31184     -0.13923         0.468063      0.267101     -0.926757
O	      2.37468      2.45861     -2.25277        -0.544247      0.307770     -0.738744
O	      0.00947      4.32044     -2.14603         1.218604     -0.453214     -0.009676
O	      2.37545      4.36740     -4.36653         0.418199     -0.285119      0.707819
