# total energy = -707.68799855 eV
 
CRYSTAL
PRIMVEC
-0.000436 5.889357 5.889690 
16.113282 3.837907 -3.839678 
-0.346620 8.336859 -8.336571 
PRIMCOORD
156 1
Li	      0.09095      0.15759     -0.15721        -0.032779      0.046002     -0.043639
Li	      0.10042      2.16288      1.81021        -0.018529      0.033951     -0.042945
Li	      0.10186      4.07956      3.73027        -0.020435      0.042817     -0.036519
Li	      2.45696      2.36382     -0.06436         0.010508      0.047965     -0.037064
Li	      2.45883      5.95603      3.52527         0.012860      0.033857     -0.041759
Li	      9.86803     11.98330     -2.20154         0.008899     -0.008581      0.002810
Li	     11.64535      3.73354     -3.73091        -0.002743      0.006925      0.002472
Li	     11.62836      5.68477     -1.77124        -0.010149     -0.008904     -0.002602
Li	     11.62798      7.64934      0.20649         0.013391     -0.006376      0.008721
Li	     14.00739      5.79358     -3.82711         0.005591     -0.003759      0.004314
Li	     13.96815      7.75162     -1.86400         0.010778     -0.009957     -0.042408
Li	     14.01101      9.71199      0.10011         0.005836      0.042064      0.007365
Ni	     -0.03653      2.06714     -2.06522        -0.179075     -0.089035      0.036456
Ni	     15.78164     15.83447     -4.05814        -0.091618     -0.040513      0.039723
Ni	      7.87722      3.86689     -3.86466        -0.047871      0.220634      0.071787
Ni	      7.78627      8.19948     -8.19417        -0.022990     -0.011440      0.012529
Ni	     -0.04857      4.03641     -0.10114        -0.176119     -0.036034      0.078223
Ni	     15.79252     11.90869     -7.98214        -0.060609     -0.012079     -0.009960
Ni	      7.87747      5.83072     -1.90429        -0.042069     -0.078557     -0.225874
Ni	      7.76041     10.15236     -6.22187        -0.013686     -0.041517      0.018935
Ni	     -0.04675      5.99151      1.85612        -0.132104     -0.037185      0.052448
Ni	     15.79836     13.87173     -6.02289        -0.070240      0.010942     -0.001129
Ni	      7.87620      7.79107      0.06177         0.254136     -0.508754      0.546503
Ni	      7.75634     12.12010     -4.26170        -0.017378     -0.012132      0.029388
Ni	      1.91518      4.13135     -2.17173        -0.020204      0.029963     -0.045826
Ni	      1.67016      8.18033     -6.21330        -0.044772     -0.041327     -0.025115
Ni	      9.91418      6.06352     -4.10326        -0.086842      0.001262     -0.035735
Ni	      9.79824     10.15682     -8.18653        -0.024198     -0.089948      0.018134
Ni	      1.93494      6.07589     -0.18346        -0.065579     -0.035044     -0.014815
Ni	      1.68113     10.15224     -4.26324         0.007820      0.068150     -0.076753
Ni	      9.91237      8.02973     -2.13807        -0.117347      0.007186     -0.107579
Ni	      9.80460     12.11438     -6.22389        -0.047603     -0.033211      0.069705
Ni	      1.91533      8.06233      1.76067        -0.058567      0.043209      0.019111
Ni	      1.67007     12.10380     -2.29095        -0.052468      0.036189      0.042645
Ni	      9.93549      9.96394     -0.14778        -0.113136      0.107938      0.027630
Ni	      9.78322     14.09588     -4.28440        -0.039186     -0.034279      0.056448
Ni	      3.88029      4.13376     -4.13232         0.017360      0.024641     -0.036751
Ni	      3.72466      8.15071     -8.14960         0.130559      0.025212     -0.027227
Ni	     12.01063      6.02602     -6.02385         0.107368     -0.089734      0.001195
Ni	     11.76899     10.15827    -10.15818         0.078573     -0.011682      0.008968
Ni	      3.88185      6.09358     -2.16393         0.015639      0.050756     -0.017334
Ni	      3.75102     10.12413     -6.19582         0.094995      0.048223     -0.014829
Ni	     11.99568      7.99524     -4.06927         0.131368     -0.016564      0.081759
Ni	     11.78756     12.12507     -8.19424         0.026308     -0.037687     -0.041017
Ni	      3.88311      8.05580     -0.20176        -0.018315     -0.017653     -0.008357
Ni	      3.75130     12.08550     -4.23239         0.100637      0.020030     -0.051722
Ni	     12.00795      9.95388     -2.10259         0.005799     -0.001791      0.023063
Ni	     11.78544     14.08392     -6.24073         0.019947      0.031006      0.049368
Ni	      5.91218      6.06017     -4.09540         0.040318      0.031104     -0.010744
Ni	      5.79223     10.32733     -8.36296         0.075882     -0.044854      0.048968
Ni	     13.99037      8.12176     -6.15790         0.112882      0.491706     -0.564368
Ni	     13.77821     12.19808    -10.23873         0.118069      0.021066     -0.046907
Ni	      5.91282      8.02331     -2.13201         0.057986     -0.006847     -0.138836
Ni	      5.79745     12.22628     -6.33627         0.077374      0.062264     -0.047149
Ni	     13.99608     10.08643     -4.19792         0.124987      0.009000      0.205291
Ni	     13.78088     14.16442     -8.27631         0.102501      0.035921     -0.045008
Ni	      5.91928      9.98840     -0.17063         0.031977      0.134857     -0.013328
Ni	      5.78687     14.25349     -4.43761         0.110707     -0.061542      0.055432
Ni	     13.99546     12.05364     -2.23479         0.099619     -0.185906     -0.014350
Ni	     13.77693     16.12668     -6.30994         0.119882      0.058665     -0.025711
O	      3.75400      4.24240     -2.27966         0.054966     -0.165928      0.165832
O	      3.50491      8.26150     -6.29598         0.138670     -0.141351      0.166015
O	     12.05124      6.10378     -4.14200         0.076960     -0.099055      0.119621
O	     11.68964     10.26222     -8.29727         0.270727     -0.086393      0.112360
O	      3.76800      6.20110     -0.30961         0.129872     -0.118272      0.148965
O	      3.52591     10.23985     -4.35068         0.124707     -0.169571      0.174076
O	     12.04277      8.07240     -2.17989         0.055531     -0.115459      0.130660
O	     11.81909     12.25287     -6.36449         0.086583     -0.152426      0.159110
O	      3.75377      8.17116      1.64930         0.117809     -0.152666      0.125795
O	      3.50455     12.18558     -2.36937         0.134294     -0.165533      0.138779
O	     12.06001     10.02334     -0.20874         0.055408     -0.138887      0.099131
O	     11.67389     14.18749     -4.37705         0.240101     -0.118812      0.092181
O	      5.75760      4.19116     -4.18946         0.097979     -0.134447      0.131189
O	      5.93004      8.43619     -8.43320        -0.096548     -0.141019      0.144761
O	     13.92061      6.19330     -6.19259        -0.036636     -1.066491      0.206030
O	     13.69177     16.19243     -4.41579         0.090962     -0.116067      0.121663
O	      5.75605      6.15143     -2.22316         0.096228     -0.151160      0.124543
O	      5.89436     10.34584     -6.44975        -0.052809     -0.147833      0.125461
O	     13.91718      8.16026     -4.23850        -0.052053     -0.193241      1.111530
O	     13.68980     12.27654     -8.36104         0.097040     -0.112778      0.145612
O	      5.75839      8.11667     -0.26221         0.107012     -0.150939      0.183289
O	      5.89433     12.34084     -4.45755        -0.084835     -0.131823      0.136559
O	     13.91391     10.12907     -2.27114         0.084650     -0.087370      0.084426
O	     13.68736     14.24897     -6.38842         0.115328     -0.137030      0.108728
O	      4.02516      5.99498     -4.02733        -0.073647      0.140653     -0.146237
O	      3.83853     10.01389     -8.05453        -0.097040      0.125909     -0.150165
O	     11.98651      7.86907     -5.91395         0.001202      0.185775     -0.193262
O	     11.77315     12.03694    -10.09467        -0.077338      0.165265     -0.105437
O	      4.02630      7.95470     -2.06230        -0.113298      0.138414     -0.128761
O	      3.96726     12.01393     -6.12203        -0.176040      0.070119     -0.076255
O	     11.98472      9.84111     -3.94614        -0.095760      0.127176     -0.128187
O	     11.76539     14.00685     -8.12143        -0.030311      0.156499     -0.154434
O	      4.02918      9.91922     -0.10443        -0.094938      0.135008     -0.139948
O	      3.83681     13.94403     -4.12163        -0.118219      0.150913     -0.121766
O	     11.95300     11.80427     -1.98509        -0.115845      0.120955     -0.120834
O	     11.77095     15.98450     -6.14916        -0.090306      0.102537     -0.162545
O	      6.03393      1.85822     -1.85819        -0.013753      0.268416     -0.242150
O	      5.98496      5.91223     -5.90525         0.020462      0.184905     -0.207100
O	     14.20213      3.77210     -3.77253         0.018095      0.138014     -0.144147
O	     13.96615      7.98858     -7.97710         0.010012      0.034244     -1.131159
O	      6.03302      3.79840      0.17396        -0.003337      0.259739     -0.177254
O	      5.96891      7.87518     -3.94547         0.027909      0.185379     -0.193143
O	     14.19340      5.73435     -1.81213         0.018689      0.154031     -0.134890
O	     13.97762      9.93985     -6.02062         0.011036      1.148327     -0.048916
O	      6.03412      5.71472      2.09153        -0.006299      0.171747     -0.279510
O	      5.98480      9.83404     -1.98639         0.045330      0.189919     -0.162285
O	     14.19523      7.69915      0.15394         0.013189      0.144833     -0.163642
O	     13.97053     11.90984     -4.05673        -0.029923      0.236995     -0.251029
O	     16.01188      6.00096     -4.03124         0.008729     -0.170790      0.165371
O	     15.80233     10.08751     -8.12399        -0.033637     -0.267435      0.250449
O	      7.97120      4.00788     -2.04314         0.010952     -0.199981      0.220433
O	      7.78078      8.33354     -6.37861        -0.006821     -0.194186      0.221420
O	     15.90598      7.97220     -2.08305         0.029662     -0.168860      0.185996
O	     15.80540     12.05307     -6.16086        -0.021816     -0.280544      0.280024
O	      7.98367      5.96975     -0.08226         0.026314     -0.953532      0.097142
O	      7.76758     10.30518     -4.40629        -0.029982     -0.214948      0.199411
O	     16.01267      9.92018     -0.11036         0.024589     -0.172731      0.161751
O	     15.80215     14.00995     -4.20453        -0.036612     -0.241575      0.268775
O	      7.97299      7.93273      1.88569         0.009975     -0.102771      0.915637
O	      7.81828     12.27117     -2.44330         0.033220     -0.197808      0.203591
O	      1.93680      4.21586     -0.32026         0.168042     -0.125476      0.117292
O	      1.68297      8.30746     -4.37122        -0.029649     -0.156010      0.149371
O	      9.84639      6.16367     -2.23683         0.130321     -0.133126      0.145047
O	      9.62947     10.25629     -6.32812         0.079556     -0.144652      0.181168
O	      1.94153      6.21175      1.67532         0.114634     -0.134961      0.144891
O	      1.68286     10.26104     -2.41823        -0.023121     -0.149904      0.162878
O	      9.84635      8.10340     -0.26372        -0.052358     -0.224543      0.209910
O	      9.62280     12.23129     -4.33875         0.112604     -0.156345      0.143329
O	      1.95457      2.25386     -2.25110         0.161681     -0.109299      0.101680
O	      1.63716     12.21189     -0.43329         0.059990     -0.137435      0.135815
O	      9.84964      4.18990     -4.17711         0.132458     -0.142872      0.130442
O	      9.65950     14.16411     -2.41456         0.082485     -0.175566      0.135830
O	      0.01692      3.95555     -1.99481        -0.067334      0.143671     -0.141974
O	     -0.24739      8.02232     -6.06295        -0.069611      0.159027     -0.119037
O	      7.75822      5.77365     -3.80936         0.007309      0.101122     -0.100479
O	      7.89889     10.08317     -8.09937        -0.232184      0.116537     -0.121622
O	      0.02298      5.91852     -0.02689        -0.056966      0.149852     -0.142027
O	     -0.23379      9.99478     -4.10546        -0.116270      0.150052     -0.143014
O	      7.75774      7.73622     -1.84511        -0.097237      0.255275     -0.938496
O	      7.71927     12.03661     -6.15376         0.057537      0.138006     -0.130273
O	      0.01868      7.88523      1.93743        -0.043608      0.123572     -0.128841
O	     -0.24770     11.95350     -2.13536        -0.060598      0.116719     -0.162855
O	      7.76446      9.69688      0.11933        -0.061342      0.936828     -0.252082
O	      7.89180     14.00137     -4.18354        -0.196331      0.130439     -0.133612
O	      2.00836      4.03933     -4.03765        -0.172468      0.108583     -0.098534
O	      1.63019      8.09261     -8.09168        -0.084282      0.087540     -0.093500
O	     10.15302     11.82602     -0.08639        -0.106774      0.105056     -0.138219
O	      9.93082     10.05934    -10.05326        -0.153566      0.167670     -0.182906
O	      2.00516      5.99143     -2.04937        -0.164094      0.102198     -0.123455
O	      1.64607     10.04398     -6.15086        -0.096052      0.139571     -0.096409
O	     10.14458      7.91381     -3.98833        -0.120108      0.152063     -0.121979
O	      9.95234     12.00190     -8.09309        -0.123148      0.240138     -0.163532
O	      2.00604      7.94100     -0.09901        -0.072495      0.153570     -0.142023
O	      1.64742     12.04007     -4.15438        -0.093955      0.102863     -0.139175
O	     10.14977      9.90315     -2.01065        -0.084510      0.152708     -0.135708
O	      9.94987     13.98059     -6.12978        -0.128886      0.170445     -0.197192
