# total energy = -705.57435390 eV
 
CRYSTAL
PRIMVEC
0.004337 5.876056 5.901099 
16.080242 3.857266 -3.862259 
-0.319029 8.311225 -8.345762 
PRIMCOORD
156 1
Li	      0.08024      5.99898      5.72033         0.020870      0.015273     -0.010559
Li	      0.05847      2.09256      1.82667         0.037293      0.006501     -0.014787
Li	      0.07804      4.09210      3.80528         0.023378      0.012868     -0.012058
Li	      2.37630      1.97909     -0.36718         0.023969     -0.003520     -0.024618
Li	      2.37248      4.27574      1.94481         0.024705      0.011771      0.007227
Li	     11.61865      3.75176     -3.73686        -0.029096     -0.013285      0.012685
Li	      3.84419      8.13651     -4.22570         0.009418      0.003290     -0.008491
Li	     11.62719      5.70787     -1.77895        -0.024783      0.005856      0.004267
Li	     11.62178      7.65820      0.18534        -0.026542     -0.009925      0.007442
Li	     13.97574      5.80551     -3.84800        -0.003657     -0.039587     -0.006803
Li	     13.97729      7.76668     -1.87902        -0.020859      0.003822      0.006412
Li	     13.93537      9.72207      0.08876         0.003192     -0.004325      0.045315
Ni	     -0.05226      7.93168      3.83166        -0.135880     -0.070929      0.083655
Ni	     15.79441     15.83449     -4.10109         0.113232     -0.420947      0.404869
Ni	      7.88793      3.87327     -3.88188        -0.076054      0.055431     -0.036737
Ni	      7.77629     14.02298     -2.29258        -0.034146      0.005711      0.006052
Ni	     -0.04107      4.01489     -0.09516        -0.126589     -0.054418      0.081883
Ni	     15.79141     11.90483     -8.01879         0.056606     -0.528193      0.530337
Ni	      7.89219      5.83064     -1.91287        -0.068954      0.046953     -0.034388
Ni	      7.79305     10.10723     -6.23098        -0.006422     -0.007743      0.011485
Ni	     -0.05396      5.98118      1.87262        -0.134572     -0.073585      0.046215
Ni	     15.79323     13.87955     -6.06370         0.099274     -0.416185      0.404407
Ni	      7.89065      7.79114      0.05213        -0.073264      0.027109     -0.054614
Ni	      7.77379     12.06655     -4.26682        -0.041378     -0.018831      0.015175
Ni	      1.92003      4.11320     -2.15145        -0.064819     -0.011453     -0.023629
Ni	      1.70403      8.17479     -6.24418        -0.032574      0.121365     -0.130113
Ni	      9.90808      6.08463     -4.13186        -0.069951     -0.011028     -0.014054
Ni	      9.79960     10.11463     -8.20015        -0.013947     -0.052120      0.046782
Ni	      1.92109      6.06893     -0.18786        -0.042005      0.020483     -0.023185
Ni	      1.70436     10.13458     -4.27664        -0.040855      0.127957     -0.131123
Ni	      9.90975      8.04260     -2.16544        -0.081867      0.003935      0.007148
Ni	      9.80127     12.07796     -6.23004        -0.019859     -0.043306      0.047186
Ni	      1.93562      8.01266      1.79752        -0.072158      0.009768      0.038237
Ni	      1.72084     12.10559     -2.32319        -0.027442      0.107156     -0.111282
Ni	      9.91078     10.00244     -0.19878        -0.067484      0.018313      0.007642
Ni	      9.80804     14.03528     -4.26507        -0.035381     -0.041272      0.038416
Ni	      3.88752      4.10970     -4.11367        -0.002920      0.060503     -0.022282
Ni	      3.78960     14.03958     -2.29525         0.060553     -0.000835     -0.005105
Ni	     11.97827      6.05818     -6.06821         0.145252      0.010692     -0.028713
Ni	     11.77838     16.01642     -4.28500         0.040086      0.067470      0.012781
Ni	      3.90218      6.05102     -2.12553         0.018471      0.021425     -0.018493
Ni	      3.74437     10.14161     -6.24861         0.082627      0.006308     -0.004578
Ni	     11.98385      8.01204     -4.09853         0.028347     -0.046900      0.021876
Ni	     11.75725     12.10289     -8.21725        -0.010001     -0.042076      0.044696
Ni	      3.88962      8.03130     -0.17675        -0.001813      0.021771     -0.053847
Ni	      3.78622     12.08275     -4.26390         0.062864      0.000173     -0.002043
Ni	     11.98132      9.97323     -2.13477         0.047252     -0.001074      0.044049
Ni	     11.77697     14.06353     -6.24625         0.043084     -0.024909     -0.069124
Ni	      5.91860      6.04404     -4.07987        -0.006451      0.014605      0.003593
Ni	      5.81511     10.32104     -8.39710         0.079297     -0.055971      0.059665
Ni	     13.97756      8.13606     -6.18003         0.026163      0.619728     -0.505407
Ni	     13.75008     12.19203    -10.26342         0.129528      0.090285     -0.102936
Ni	      5.91923      8.00570     -2.11106        -0.006860     -0.007731     -0.009238
Ni	      5.81577     12.28273     -6.42885         0.078280     -0.058660      0.058257
Ni	     13.97905     10.09175     -4.21431         0.094540     -0.155700      0.156586
Ni	     13.75143     14.14670     -8.30032         0.134654      0.102026     -0.094961
Ni	      5.91822      9.97294     -0.15381        -0.022167     -0.008259     -0.004839
Ni	      5.82961     14.17708     -4.39851         0.068923      0.031799     -0.035334
Ni	     13.97863     12.05395     -2.24827         0.031393      0.539749     -0.613248
Ni	     13.75975     16.10831     -6.33226         0.119247      0.095995     -0.096520
O	      3.76249      4.20381     -2.25342         0.051963     -0.149862      0.175942
O	      3.55116      8.27642     -6.31093         0.074544     -0.142273      0.167727
O	     12.02377      6.12795     -4.18325         0.071258     -0.070016      0.171240
O	     11.68353     10.24053     -8.32302         0.242748     -0.098166      0.098499
O	      3.76323      6.17130     -0.27845         0.097578     -0.171107      0.157493
O	      3.55144     10.19999     -4.38174         0.075738     -0.169314      0.143633
O	     12.02531      8.08811     -2.21330         0.077592     -0.152200      0.147133
O	     11.68506     12.20072     -6.35436         0.235085     -0.098638      0.097469
O	      3.77519      8.13526      1.67443         0.036500     -0.204571      0.194139
O	      3.57129     12.19544     -2.41740         0.061659     -0.161469      0.151255
O	     12.01839     10.04873     -0.25024         0.069267     -0.159983      0.077723
O	     11.81286     14.18511     -4.41422         0.119287     -0.158824      0.142048
O	      5.77850     10.04207      1.71969         0.190175     -0.138998      0.141299
O	      5.90656      8.40476     -8.41743        -0.031016     -0.138755      0.160856
O	     13.90390      6.21596     -6.22438        -0.178849     -1.054376      1.093869
O	     13.68170     10.31353    -10.34642        -0.005636     -0.128254      0.138220
O	      5.78203      6.12853     -2.20221         0.134674     -0.131055      0.130543
O	      5.92907     10.38318     -6.50030        -0.024031     -0.133434      0.133515
O	     13.91211      8.16382     -4.25238         0.016676     -0.121003      0.925275
O	     13.66556     12.25897     -8.37375         0.082407     -0.140869      0.133707
O	      5.77588      8.09911     -0.23195         0.187047     -0.137481      0.125760
O	      5.90865     12.29581     -4.51474        -0.029981     -0.158434      0.138173
O	     13.90724     10.12701     -2.29434         0.002786     -0.949429      0.130758
O	     13.68451     14.22294     -6.42006        -0.008982     -0.127703      0.116267
O	      4.03405      5.98599     -3.99092        -0.091709      0.188862     -0.142828
O	      3.84843     10.02597     -8.10478        -0.090264      0.145305     -0.135043
O	     11.98935      7.90311     -5.94587        -0.109800      0.124527     -0.120986
O	     11.74213     12.03816    -10.09652        -0.173827      0.076748     -0.095113
O	      4.03455      7.91667     -2.05326        -0.098204      0.141529     -0.184973
O	      3.84921     11.99636     -6.12787        -0.096935      0.139502     -0.148813
O	     11.99188      9.85805     -3.98092        -0.109805      0.106639     -0.103896
O	     11.74348     13.98183     -8.14453        -0.173310      0.097438     -0.068168
O	      4.02858      9.89050     -0.07146        -0.073580      0.167447     -0.167311
O	      3.98904     13.96794     -4.18333        -0.161880      0.100566     -0.100423
O	     11.99205     11.82070     -2.01524        -0.125213      0.131225     -0.113635
O	     11.75257     15.94530     -6.16703        -0.185207      0.095664     -0.101360
O	      6.06265      7.69114      4.04170        -0.002037      0.185509     -0.257125
O	      5.94744      5.91259     -5.89641         0.030991      0.186718     -0.209452
O	     14.12516      3.79376     -3.79239        -0.007499      0.154555     -0.154584
O	     13.96603      8.00036     -7.99941         0.065002      0.787775     -0.748961
O	      6.05332      3.84230      0.08575        -0.018304      0.258739     -0.272318
O	      5.89869      7.86149     -3.92879         0.015335      0.187470     -0.201452
O	     14.13076      5.75274     -1.82877        -0.001422      0.153172     -0.157475
O	     13.96821      9.95628     -6.03478         0.002696      0.895668     -0.026617
O	      6.05923      5.78003      2.12088         0.001302      0.264341     -0.173273
O	      5.94784      9.82307     -1.96803         0.039932      0.206727     -0.206316
O	     14.12759      7.70770      0.13836         0.001215      0.160596     -0.157167
O	     13.96883     11.91136     -4.06941        -0.000822      0.038646     -0.949449
O	     15.98353      5.99763     -4.05633        -0.023585     -0.150441      0.177338
O	     15.80507     10.08046     -8.17812        -0.047304     -0.752730      0.776961
O	      8.00100      4.00814     -2.05909         0.011511     -0.245334      0.238732
O	      7.76810      8.28827     -6.37805        -0.056980     -0.158954      0.191786
O	     15.98594      7.96538     -2.08018         0.003988     -0.161997      0.149566
O	     15.80761     12.05500     -6.19464        -0.019306     -0.784740      0.729504
O	      8.00159      5.96834     -0.09048         0.013812     -0.232188      0.244371
O	      7.74907     10.25371     -4.41777        -0.016602     -0.204111      0.203968
O	     15.86843      9.93379     -0.13193        -0.006129     -0.188967      0.164291
O	     15.81478     14.01792     -4.24761        -0.092486     -0.813846      0.819096
O	      8.01577      7.92753      1.87355         0.024197     -0.254170      0.249662
O	      7.76467     12.20752     -2.45097        -0.026947     -0.199262      0.200452
O	      1.94201      4.19158     -0.27397         0.152883     -0.092784      0.103790
O	      1.75580      8.28004     -4.38864        -0.137541     -0.179885      0.167730
O	      9.84467      6.17335     -2.26105         0.106268     -0.143658      0.125579
O	      9.67070     10.21010     -6.33215         0.099170     -0.141673      0.141209
O	      1.92649      6.15377      1.66184         0.174275     -0.129064      0.106243
O	      1.72676     10.26067     -2.43567        -0.063284     -0.176943      0.190718
O	      9.84387      8.13243     -0.29387         0.094216     -0.128736      0.149318
O	      9.63995     12.16907     -4.36986         0.095221     -0.149619      0.147855
O	      1.92462      2.26398     -2.24405         0.267579     -0.086907      0.102572
O	      1.72859     12.21067     -0.47739        -0.060887     -0.194925      0.172949
O	      9.84562     10.09043      1.67246         0.099839     -0.146588      0.145625
O	      9.64277     14.12987     -2.39922         0.101409     -0.149670      0.151161
O	      0.01721      3.94896     -1.98485         0.051436      0.149789     -0.105613
O	     -0.20301      8.01897     -6.08062         0.067713      1.073778     -1.044524
O	      7.75717      5.77685     -3.81797         0.097120      0.124956     -0.128849
O	      7.91741     10.02012     -8.10483        -0.161581      0.153662     -0.145027
O	      0.01794      5.90290     -0.02274        -0.043598      0.137903     -0.138319
O	     -0.20196      9.97223     -4.11878         0.066708      1.042874     -1.092158
O	      7.75820      7.73683     -1.85026         0.079873      0.129276     -0.124853
O	      7.91896     11.98328     -6.14201        -0.166469      0.138766     -0.126830
O	      0.02114      7.86448      1.94659         0.070555      0.114084     -0.144801
O	     -0.19878     11.95377     -2.16921         0.080530      1.005552     -1.000325
O	      7.76067      9.69745      0.11402         0.077117      0.127131     -0.132448
O	      7.75342     13.95417     -4.18075         0.056426      0.126035     -0.133346
O	      2.00735      3.99932     -4.01031        -0.231389      0.093546     -0.089940
O	      1.67828      8.11891     -8.11156        -0.090308      0.094383     -0.096998
O	     10.13218      5.98175     -5.98866        -0.118802      0.125811     -0.121469
O	      9.94424     10.02545    -10.05250        -0.060564      0.160517     -0.191789
O	      2.02849      5.97582     -2.05068        -0.196978      0.118097     -0.114094
O	      1.65288     10.05787     -6.15939        -0.120501      0.085769     -0.096607
O	     10.13742      7.93902     -4.02139        -0.087661      0.181325     -0.136867
O	      9.92398     11.97331     -8.08813        -0.046894      0.189192     -0.196302
O	      2.00941      7.92719     -0.06606        -0.220612      0.114512     -0.100445
O	      1.67965     12.00126     -4.21299        -0.095466      0.088225     -0.099617
O	     10.13539      9.89768     -2.05608        -0.104285      0.135069     -0.170512
O	      9.94725     13.93032     -6.13141        -0.062572      0.194461     -0.165782
