# total energy = -704.99829623 eV
 
CRYSTAL
PRIMVEC
-0.007970 5.908662 5.867110 
16.105766 3.842739 -3.836608 
-0.355779 8.389144 -8.330355 
PRIMCOORD
156 1
Li	      0.04099      0.13143     -0.11623         0.005716     -0.015445      0.015724
Li	      0.07779      2.10408      1.83496         0.006526     -0.010034      0.009269
Li	      0.03625      4.06865      3.79309         0.003768     -0.013772      0.017184
Li	      2.44181      2.21937     -0.24583         0.005315      0.006958     -0.004952
Li	      2.44131      4.20249      1.72086         0.008103      0.005893     -0.004568
Li	      2.42338      6.15593      3.68018        -0.002831     -0.001158      0.005926
Li	      9.84622     12.03907     -2.18367        -0.014389     -0.005886     -0.000214
Li	     11.60636      3.91723     -3.55576         0.007325     -0.013729      0.038860
Li	     11.59180      7.48950      0.00107         0.004737     -0.041618      0.014240
Li	     13.93522      5.77661     -3.76008         0.000765     -0.024296      0.022624
Li	     13.93102      7.69752     -1.85211        -0.000837     -0.019404      0.026655
Li	     13.94725      9.70428      0.11284        -0.008991     -0.025823      0.023412
Ni	     -0.08245      7.95678      3.82321        -0.120869     -0.096161      0.100318
Ni	     15.78245     10.00678     -9.93219         0.036445     -0.478393      0.456213
Ni	      7.86579      9.83450      1.95837        -0.061420      0.058111     -0.059344
Ni	      7.75586      8.26174     -8.18291         0.014536     -0.031670      0.028473
Ni	     -0.08475      4.01946     -0.08546        -0.116381     -0.099274      0.097661
Ni	     15.78050     11.97435     -7.97214         0.036286     -0.461145      0.467427
Ni	      7.86259      5.96120     -2.02098        -0.056062     -0.039005      0.036668
Ni	      7.75446     10.22361     -6.22080         0.039347     -0.020240      0.042288
Ni	     -0.08015      5.99164      1.87192        -0.124170     -0.102472      0.095682
Ni	     15.77696     13.94781     -6.01789         0.039865     -0.456569      0.472726
Ni	      7.86694      7.86360      0.00005        -0.054684      0.048394     -0.046133
Ni	      7.74913     12.20158     -4.27452         0.025745     -0.039844      0.019877
Ni	      1.90150      4.10677     -2.13205        -0.038340     -0.069276     -0.013776
Ni	      1.66612      8.24696     -6.22149        -0.072207     -0.006062     -0.036028
Ni	      9.91535      6.08573     -4.10603        -0.050015      0.003010     -0.010261
Ni	      9.78739     10.19357     -8.15282         0.028764     -0.068136      0.015494
Ni	      1.89824      6.07062     -0.18261        -0.031097      0.011844      0.067034
Ni	      1.66388     10.21669     -4.26452        -0.071556      0.035656     -0.010780
Ni	      9.90986      8.05757     -2.15227        -0.051908      0.004883     -0.010052
Ni	      9.78469     12.15987     -6.20187         0.015278     -0.018684      0.064552
Ni	      1.91627      8.04187      1.77748         0.006150      0.036855     -0.044252
Ni	      1.65631     12.18977     -2.31362        -0.070892      0.017228      0.013713
Ni	      9.95445     10.00633     -0.17643        -0.086871      0.000534      0.001516
Ni	      9.76818     14.15103     -4.26324         0.006594     -0.015718      0.020027
Ni	      3.87635     10.02621      1.75564         0.017691      0.048882     -0.043624
Ni	      3.74436      8.20833     -8.14695         0.049143     -0.018650      0.008511
Ni	     11.99780     11.97358     -0.18186         0.009864     -0.128665      0.147995
Ni	     11.76177     10.17436    -10.10666         0.101244      0.004888     -0.037615
Ni	      3.87508      6.08455     -2.15812         0.035474      0.040802     -0.042574
Ni	      3.74323     10.17782     -6.19074         0.032243     -0.012003      0.023121
Ni	     11.98764      8.02134     -4.08065         0.008861     -0.133463      0.126749
Ni	     11.74600     12.16192     -8.16636         0.084476      0.035228     -0.015879
Ni	      3.87789      8.05260     -0.20514         0.026728      0.048448     -0.046264
Ni	      3.73906     12.14776     -4.23475         0.049606     -0.006615      0.015211
Ni	     11.99865     10.00442     -2.13810         0.008977     -0.151182      0.126409
Ni	     11.75668     14.11650     -6.19235         0.096318      0.036654     -0.002073
Ni	      5.91462      6.08249     -4.12534         0.014926      0.020321      0.019952
Ni	      5.78125     10.42222     -8.39840         0.057200     -0.054739      0.031611
Ni	     13.99764      8.13702     -6.16325        -0.153455      0.426370     -0.408299
Ni	     13.73811     12.23753    -10.19870         0.130171      0.073355     -0.091807
Ni	      5.91078      8.05646     -2.16750         0.031283     -0.022249     -0.006693
Ni	      5.77861     12.39245     -6.44276         0.061856     -0.037993      0.058594
Ni	     13.99465     10.10266     -4.21089        -0.159588      0.413923     -0.428198
Ni	     13.73573     14.19979     -8.25030         0.125592      0.092055     -0.070153
Ni	      5.88502     10.02267     -0.21145        -0.007715     -0.023107      0.004104
Ni	      5.77146     14.36251     -4.48754         0.052228     -0.039942      0.041511
Ni	     13.99286     12.08721     -2.26654        -0.077966      0.508207     -0.523852
Ni	     13.71896     16.17639     -6.29460         0.143411      0.087507     -0.078991
O	      3.73278      4.21868     -2.25903         0.055464     -0.161993      0.181376
O	      3.51306      8.32128     -6.29353         0.108530     -0.120201      0.137602
O	     12.02707      6.12964     -4.18014         0.071260     -0.079809      0.072313
O	     11.66829     10.29695     -8.24735         0.225390     -0.071494      0.079861
O	      3.72952      6.19965     -0.29282         0.053650     -0.183374      0.161440
O	      3.51098     10.29248     -4.33639         0.107247     -0.134465      0.130767
O	     12.02193      8.13473     -2.18890         0.072538     -0.084720      0.070350
O	     11.66549     12.25620     -6.30218         0.227803     -0.079112      0.074284
O	      3.75097      8.16676      1.65370         0.034342     -0.183373      0.179702
O	      3.50305     12.26136     -2.38085         0.103809     -0.120233      0.126189
O	     12.04778     10.09126     -0.25490         0.084254     -0.085475      0.072391
O	     11.64320     14.21901     -4.32890         0.187958     -0.091023      0.086533
O	      5.76050     10.11564      1.66547         0.173304     -0.125770      0.116686
O	      5.91536      8.51969     -8.44902        -0.079762     -0.114508      0.113803
O	     13.90192     12.13020     -0.34303        -0.076852     -1.089790      1.025486
O	     13.66565     10.33980    -10.27215        -0.100491     -0.124220      0.131239
O	      5.94239      6.16708     -2.23610        -0.081075     -0.111387      0.100461
O	      5.91168     10.48740     -6.49306        -0.063917     -0.120164      0.115568
O	     13.90481      8.17615     -4.23400        -0.087506     -1.026941      1.010638
O	     13.65864     12.31256     -8.31388        -0.070801     -0.138111      0.140878
O	      5.76182      8.14558     -0.29259         0.174831     -0.108956      0.122072
O	      5.90966     12.45853     -4.53926        -0.078446     -0.113377      0.112939
O	     13.90373     10.16526     -2.29326        -0.076366     -1.027008      1.078792
O	     13.65975     14.28476     -6.35502        -0.088898     -0.129877      0.131897
O	      4.04850      5.97808     -4.02301        -0.086668      0.145831     -0.145706
O	      3.82405     10.07945     -8.06023        -0.055015      0.159584     -0.147717
O	     11.97980      7.90700     -5.92584         0.114719      0.172999     -0.169441
O	     11.75566     12.02456    -10.02595        -0.232985      0.100195     -0.110836
O	      4.04462      7.94959     -2.06548        -0.091875      0.152014     -0.142827
O	      3.82190     12.04853     -6.10480        -0.057911      0.151438     -0.155785
O	     11.97638      9.86727     -3.97909         0.117721      0.161901     -0.178183
O	     11.75227     14.02282     -8.04203        -0.233141      0.111590     -0.096480
O	      4.00710      9.92126     -0.11211        -0.071446      0.134432     -0.137484
O	      3.81520     14.01772     -4.14838        -0.064532      0.149639     -0.153425
O	     11.94445     11.86094     -2.03734         0.165983      0.148730     -0.159137
O	     11.73444     15.99559     -6.11819        -0.246089      0.081305     -0.080125
O	      6.01340      7.79536      3.97590        -0.009092      0.239453     -0.220442
O	      5.92128     11.83740     -0.07147         0.039298      0.188737     -0.198947
O	     14.14056      3.75590     -3.74130        -0.017825      0.159633     -0.159564
O	     13.96515     13.91092     -2.12130         0.059344      0.758914     -0.790091
O	      6.00650      3.85579      0.06577        -0.019243      0.231717     -0.249090
O	      5.91716      7.89856     -3.98340         0.035826      0.195957     -0.200787
O	     14.24875      5.70795     -1.77633        -0.031855      0.169883     -0.174576
O	     13.97266      9.95390     -6.02985         0.076742      0.803426     -0.803369
O	      6.01676      5.82651      2.01970        -0.015222      0.224912     -0.230804
O	      5.91420      9.87051     -2.02792         0.041749      0.215110     -0.182764
O	     14.13673      7.68649      0.16192        -0.014632      0.159952     -0.156874
O	     13.96741     11.92592     -4.09154         0.063000      0.782165     -0.767717
O	     15.96062      5.98710     -4.00898         0.004272     -0.126902      0.131295
O	     15.79521     10.15243     -8.11033        -0.069165     -0.788616      0.775575
O	      7.95480      4.13455     -2.10100        -0.009053     -0.158951      0.252018
O	      7.72707      8.40718     -6.36418        -0.049922     -0.177631      0.183138
O	     15.95704      7.95976     -2.05025         0.010754     -0.128523      0.127328
O	     15.79366     12.12712     -6.14826        -0.066639     -0.764418      0.795827
O	      7.95077      6.05591     -0.19603        -0.006767     -0.253423      0.186255
O	      7.72343     10.38352     -4.40423        -0.050970     -0.187942      0.174428
O	     15.95192      9.92582     -0.09388         0.010783     -0.128740      0.122047
O	     15.79243     14.09585     -4.19705        -0.073939     -0.752379      0.771518
O	      7.95297      8.00263      1.83412         0.010364     -0.265561      0.243363
O	      7.76985     12.35132     -2.45639        -0.006485     -0.179543      0.180468
O	      1.92758      4.18667     -0.24814         0.168349     -0.098333      0.087459
O	      1.66057      8.36819     -4.37406         0.045490     -0.114027      0.123516
O	      9.70233      6.16960     -2.22119         0.162257     -0.091021      0.088395
O	      9.64404     10.30081     -6.29427         0.067512     -0.160875      0.158106
O	      1.93293      6.16118      1.71861         0.163457     -0.096402      0.060858
O	      1.65329     10.34099     -2.41764         0.077565     -0.093034      0.095905
O	      9.83584      8.15136     -0.29014         0.080772     -0.136617      0.150911
O	      9.63431     12.28511     -4.32622         0.079134     -0.132934      0.190529
O	      1.93063      8.11384      3.65775         0.164214     -0.060537      0.098038
O	      1.65673      6.39860     -6.33236         0.091373     -0.087445      0.092903
O	      9.84283      4.22195     -4.19010         0.079147     -0.152862      0.136829
O	      9.64084      8.31658     -8.26465         0.082233     -0.189017      0.128570
O	     -0.00374      3.92947     -1.97244         0.008379      0.118204     -0.126405
O	     -0.25639      8.08236     -6.06278         0.123671      1.067717     -1.037218
O	      7.78330      5.84083     -3.90383         0.013009      0.122000     -0.118346
O	      7.90107     10.14183     -8.09394        -0.230549      0.118283     -0.123834
O	     -0.00684      5.90865     -0.00724         0.007861      0.122835     -0.126095
O	     -0.25832     10.05629     -4.10121         0.123911      1.051180     -1.057802
O	      7.77840      7.84406     -1.91639         0.015065      0.123548     -0.125411
O	      7.89712     12.09824     -6.15425        -0.225306      0.117778     -0.116811
O	      0.00825      7.88370      1.93359        -0.071897      0.125192     -0.132022
O	     -0.26859     12.03249     -2.15746         0.103692      1.033925     -1.033552
O	      7.74940      9.75893      0.06067         0.039775      0.133462     -0.125179
O	      7.88800     14.07865     -4.19285        -0.175280      0.117797     -0.114111
O	      1.99137      9.90605      1.87131        -0.245790      0.074208     -0.072914
O	      1.62580      8.16516     -8.10787        -0.047866      0.145748     -0.120571
O	     10.14891     11.87256     -0.12051        -0.065973      0.132515     -0.166764
O	      9.91842     10.08976    -10.01245        -0.059247      0.146430     -0.160616
O	      1.86027      5.93885     -2.01378        -0.061718      0.121173     -0.124065
O	      1.63090     10.13052     -6.14916        -0.033967      0.143397     -0.135620
O	     10.13523      7.93121     -3.99508        -0.057579      0.143214     -0.155612
O	      9.90567     12.04424     -8.05099        -0.043245      0.198196     -0.197485
O	      1.99333      7.93513     -0.08646        -0.243692      0.072730     -0.068182
O	      1.62074     12.10243     -4.19723        -0.051812      0.131755     -0.139552
O	     10.14983      9.94216     -2.04083        -0.069133      0.161190     -0.132873
O	      9.91331     14.02041     -6.11026        -0.056480      0.165531     -0.146285
