# total energy = -731.50905020 eV
 
CRYSTAL
PRIMVEC
-0.004333 5.917388 5.886321 
16.190440 3.921438 -3.912384 
-0.238599 8.309473 -8.265434 
PRIMCOORD
160 1
Li	      8.07874      7.95550      3.85084         0.009421     -0.045586      0.052085
Li	      8.08520      6.33673     -6.28655        -0.061080      0.093240     -0.097100
Li	      8.07512      3.99997     -0.04992         0.008389     -0.004730      0.031524
Li	      8.08253      5.97116      1.90672        -0.031084     -0.025921     -0.002745
Li	      1.67386      1.74657      0.06838        -0.008991     -0.027605      0.003309
Li	     10.22691      3.96462     -1.99243        -0.007740      0.010078     -0.007598
Li	     10.27877      6.00813     -0.03346        -0.021955      0.000722     -0.061105
Li	     10.26410      7.91272      1.88648        -0.019314      0.058896     -0.004857
Li	      3.89391      7.85194      3.90218        -0.019896     -0.003641     -0.002139
Li	     12.30744      9.84801      1.66822        -0.031370      0.015737     -0.031956
Li	      3.85799      3.94892      0.03256        -0.012823      0.001172     -0.001637
Li	     12.32071      6.20166     -1.98913        -0.025923      0.037296     -0.008042
Li	      3.60137      5.76858      2.11346        -0.048061     -0.018122      0.014984
Li	      6.00691      3.94764     -1.96017         0.009306     -0.021041      0.025172
Li	      5.98189      5.91906      0.00953         0.008817     -0.021318      0.021928
Li	      5.98811      7.85372      1.94956         0.003534     -0.029080      0.023739
Ni	     16.03349      6.02849     -5.98975        -0.016057     -0.033794     -0.053894
Ni	     -0.16688      6.20558     -6.15894         0.070723     -0.036150      0.031317
Ni	      8.08301      9.88043      1.93523        -0.106861     -0.044550      0.056270
Ni	      7.85574      8.22131     -8.17050         0.280763     -0.023831      0.020818
Ni	     16.03571      8.00289     -4.01845        -0.017509     -0.004623     -0.040215
Ni	     -0.16251      8.17898     -4.19166         0.050246     -0.023230      0.018609
Ni	      8.08501      5.93883     -1.98583        -0.107249     -0.044533      0.046663
Ni	      7.90111     10.10042     -6.11639         0.249337     -0.951581      0.807969
Ni	     16.04174      9.96488     -2.05643         0.038230      0.104267     -0.016799
Ni	     -0.16524     10.15050     -2.23330         0.149555     -0.048229      0.072470
Ni	      8.07074      7.91396     -0.03320        -0.142156     -0.053682      0.037370
Ni	      7.89883     12.07354     -4.15782         0.239452     -0.773140      0.959843
Ni	      1.88447      4.15251     -2.16144        -0.074702     -0.003849      0.008140
Ni	      1.84599      8.16716     -6.15921        -0.000917     -0.056288      0.066960
Ni	     10.05726      6.01746     -4.02492        -0.036552     -0.041240      0.022886
Ni	      9.88608     10.20915     -8.18135        -0.134236     -0.046233     -0.133447
Ni	      1.88158      6.12227     -0.20082        -0.090082     -0.007485     -0.017698
Ni	      1.83522     10.17564     -4.22769         0.013155     -0.054406     -0.003022
Ni	     10.03487      8.00501     -2.08455        -0.004597     -0.017943      0.021624
Ni	      9.90117     12.17123     -6.22434        -0.134390     -0.070508     -0.111779
Ni	      1.88320      8.09969      1.77128        -0.110028      0.009590      0.020803
Ni	      1.82268     12.15010     -2.26156        -0.014861     -0.005747      0.064719
Ni	     10.04056      9.96173     -0.12209        -0.001459     -0.002049      0.007546
Ni	      9.88267     14.14375     -4.27512        -0.188209      0.110649      0.239809
Ni	      3.98224      4.08362     -4.06262         0.059194     -0.049060      0.086729
Ni	      3.80500     14.12763     -2.28499         0.142067      0.030257     -0.018684
Ni	     12.04222      6.09178     -6.06616         0.037790      0.000450     -0.059807
Ni	     11.98889     10.15427    -10.10807         0.135297      0.082313      0.102219
Ni	      3.97519      6.05180     -2.09702         0.067119     -0.011099      0.049452
Ni	      3.79051     10.20053     -6.22684        -0.032152     -0.010070      0.015026
Ni	     12.03770      8.05961     -4.10941         0.040572      0.054002     -0.009211
Ni	     11.99932     12.11776     -8.15024         0.129537     -0.110884     -0.091945
Ni	      3.97452      8.01770     -0.13013         0.060146     -0.090812      0.021371
Ni	      3.79490     12.17125     -4.25750        -0.019025     -0.025344      0.017424
Ni	     12.05968     10.01091     -2.12328         0.046100      0.004055      0.012369
Ni	     11.98712     14.10889     -6.19291         0.341101     -0.143704      0.232974
Ni	      5.96741      6.16424     -4.16383         0.087277     -0.010913     -0.010497
Ni	      5.78874     10.29923     -8.28084         0.108050      0.017818     -0.099523
Ni	     14.10562      8.09744     -6.10411        -0.041878     -0.002252     -0.017573
Ni	     14.05717     12.28858    -10.28777         0.146297     -0.010323      0.003218
Ni	      5.95735      8.12787     -2.21027         0.158256     -0.036663      0.057926
Ni	      5.76461     12.26510     -6.31714         0.129732      0.075303     -0.087394
Ni	     14.10636     10.06891     -4.14047        -0.038697      0.048207      0.049290
Ni	     14.07104     14.26724     -8.31694         0.121271     -0.010931      0.047627
Ni	      5.96758     10.09085     -0.25466         0.068787     -0.005200     -0.003507
Ni	      5.80334     14.22938     -4.36175         0.127868      0.102019     -0.011888
Ni	     14.10706     12.04031     -2.18121        -0.024310     -0.056450     -0.026405
Ni	     14.07451     16.22730     -6.37524         0.101379     -0.031762      0.002977
O	      3.99353      4.14410     -2.15893         0.092058     -0.087199      0.067623
O	      3.71996      8.33523     -6.29289         0.166052     -0.080039      0.146963
O	     11.89152      6.14797     -4.15988         0.120437     -0.114702      0.110986
O	     11.73858     10.25612     -8.25544         0.170194     -0.095859      0.094440
O	      3.97604      6.11300     -0.19507         0.119776     -0.076825      0.073638
O	      3.72131     10.31106     -4.36751         0.223072     -0.082902      0.075128
O	     11.87008      8.13152     -2.23933         0.105448     -0.163624      0.137699
O	     11.75282     12.24957     -6.29571        -0.067034     -0.591652      0.032686
O	      3.98656      8.09780      1.77617         0.119592     -0.073515      0.097068
O	      3.69834     12.25132     -2.40012         0.178908     -0.145430      0.091637
O	     11.87300     10.13254     -0.24755         0.127651     -0.130508      0.161282
O	     11.73518     14.21717     -4.32697        -0.019756     -0.034322      0.577569
O	      5.91143      4.22206     -4.19843         0.070497     -0.154768      0.135574
O	      5.93392      8.41256     -8.36064        -0.126306     -0.080220      0.082866
O	     14.15197      6.20607     -6.17931        -0.110890     -0.084337      0.094037
O	     14.16559     16.29840     -4.46189        -0.108504     -0.106519      0.112838
O	      5.90261      6.19004     -2.21586         0.066785     -0.160459      0.147788
O	      5.69969     10.37857     -6.39684         0.056227     -0.089637      0.127124
O	     14.14901      8.18429     -4.21123        -0.088444     -0.107974      0.078272
O	     14.17067     12.35996     -8.37290        -0.111441     -0.116172      0.104182
O	      5.89913      8.13848     -0.27023         0.081286     -0.143426      0.154019
O	      5.71716     12.34125     -4.43450         0.075965     -0.124899      0.092722
O	     14.15352     10.14956     -2.25029        -0.036866     -0.070138      0.067601
O	     14.17019     14.32456     -6.41173        -0.306284     -0.105639      0.110774
O	      3.98064      5.92746     -3.94117        -0.054815      0.124315     -0.133227
O	      3.74329     10.12382     -8.11904        -0.093628      0.141466     -0.074884
O	     12.25848      7.95342     -5.96857        -0.079210      0.110129     -0.105144
O	     12.06482     12.05545    -10.05184        -0.126422      0.068105     -0.076409
O	      3.96780      7.89083     -1.96976        -0.086653      0.104844     -0.110692
O	      3.76220     12.08936     -6.14732        -0.149247      0.099566     -0.106094
O	     12.26031      9.92569     -3.98945        -0.031028      0.120873     -0.164943
O	     12.06193     13.99414     -8.09030        -0.076060      0.194716     -0.724115
O	      3.98006      9.86262     -0.01713        -0.012826      0.154828     -0.150229
O	      3.81292     14.05818     -4.17694        -0.130935      0.087436     -0.147060
O	     12.26187     11.88315     -2.04244        -0.053731      0.151042     -0.134034
O	     12.05361     16.00349     -6.09609        -0.090038      0.717141     -0.200687
O	      6.04847      7.80698      3.99219        -0.042796      0.137892     -0.142602
O	      6.12429     11.91178     -0.09393         0.034350      0.171837     -0.155398
O	     14.17850      9.73811      2.02618        -0.068260      0.227721     -0.153755
O	     14.04612     13.85786     -2.03789         0.005596      0.187258     -0.151862
O	      6.02304      3.87167      0.06932        -0.026565      0.142601     -0.140858
O	      5.99399      7.99611     -4.01573        -0.007190      0.256257     -0.275202
O	     14.18374      5.80466     -1.87205        -0.067291      0.181223     -0.223250
O	     14.04461      9.91571     -5.96004        -0.002790      0.169476     -0.158289
O	      6.06033      5.82656      2.03139        -0.014423      0.148530     -0.152930
O	      5.98870      9.93318     -2.08507         0.012874      0.235752     -0.220781
O	     14.19067      7.78404      0.06148         0.020853      0.186332     -0.183866
O	     14.04866     11.88867     -4.00203        -0.000016      0.159440     -0.153512
O	     16.06370      6.18067     -4.16602        -0.001600     -0.199195      0.225751
O	     15.99988     10.28583     -8.25294        -0.059505     -0.180647      0.155151
O	      8.04398      4.06068     -2.07515        -0.005166     -0.145861      0.152552
O	      7.84234      8.29078     -6.35532        -0.180222     -0.647216     -0.173941
O	     16.08812      8.15368     -2.20142        -0.002053     -0.221774      0.199389
O	     16.00559     12.25479     -6.28336        -0.042931     -0.184054      0.169216
O	      8.04125      6.03084     -0.11273         0.002319     -0.157806      0.163278
O	      7.91830     10.23642     -4.27924        -0.105867     -0.759290      0.747514
O	     16.08140     10.12683     -0.23356        -0.008163     -0.194163      0.106384
O	     16.00062     14.22707     -4.32988        -0.045301     -0.161638      0.138003
O	      8.02744      8.00673      1.83940         0.007167     -0.164390      0.157214
O	      7.83901     12.32229     -2.34908        -0.196396      0.196423      0.635623
O	      1.72858      4.21265     -0.27327         0.162622     -0.098363      0.116483
O	      1.73000      8.30413     -4.28814         0.066254     -0.153074      0.126006
O	     10.14695      6.09528     -2.13297         0.107239     -0.108760      0.094699
O	      9.89624     10.33113     -6.34385        -0.125369     -0.059403      0.181450
O	      1.72225      6.22139      1.68315         0.109752     -0.156863      0.132312
O	      1.73405     10.28012     -2.37201        -0.026415     -0.145089      0.202836
O	     10.08053      8.07985     -0.18949         0.109592     -0.129348      0.116456
O	      9.89274     12.30544     -4.38552        -0.114433     -0.160371      0.080211
O	      1.72716      2.25810     -2.19736         0.180773     -0.101754      0.095912
O	      1.72622      6.30883     -6.27226         0.062893     -0.142989      0.136287
O	     10.14309     10.02302      1.78762         0.086381     -0.086470      0.119668
O	      9.75271      8.33411     -8.28717         0.136388     -0.062192      0.014704
O	     15.99177      7.92139     -5.91710         0.024153      0.147702     -0.091793
O	     -0.02504      8.08294     -6.06040        -0.140633      0.116853     -0.098120
O	      8.15989      5.84547     -3.87704        -0.060207      0.101436     -0.100556
O	      7.95716     10.13228     -8.06881        -0.049341      0.255885     -1.081528
O	     15.99334      9.89092     -3.95237        -0.005234      0.128459     -0.089317
O	     -0.03546     10.06273     -4.11437        -0.192117      0.102595     -0.113622
O	      8.13781      7.81386     -1.90464        -0.059901      0.096861     -0.112632
O	      7.95692     12.02240     -6.08159        -0.005225      1.251722     -1.229761
O	     15.99211     11.86370     -1.99300        -0.012485      0.138761     -0.130673
O	     -0.04368     12.02217     -2.15236        -0.138281      0.112326     -0.117107
O	      8.14023      9.81225      0.05356        -0.118666      0.103534     -0.109331
O	      7.95718     14.02917     -4.19558        -0.003161      1.093623     -0.281043
O	      2.14312      4.02838     -4.00801        -0.077384      0.132819     -0.171907
O	      1.83306      8.08466     -8.00058        -0.151572      0.154209     -0.133366
O	      9.98490      5.89970     -5.87287        -0.097799      0.107743     -0.109029
O	      9.85843     10.12730    -10.08020        -0.033356      0.055217     -0.086229
O	      2.13630      5.99839     -2.04925        -0.085837      0.153880     -0.135275
O	      1.94352     10.03989     -6.11108        -0.051193      0.140252     -0.186137
O	     10.00572      7.85767     -3.92766        -0.103811      0.110188     -0.122067
O	      9.87367     12.08989     -8.12318        -0.044601      0.128152     -0.071011
O	      2.13414      7.97520     -0.07915        -0.094787      0.159685     -0.140126
O	      1.94727     12.04195     -4.12513        -0.042085      0.189031     -0.158893
O	     10.01065      9.84466     -1.96231        -0.113828      0.136147     -0.140801
O	      9.86799     14.07430     -6.16025         0.266616      0.138724     -0.162224
