# total energy = -798.61514591 eV
 
CRYSTAL
PRIMVEC
-0.000597 5.931560 5.931667 
16.475754 4.265200 -4.266984 
0.078239 8.357608 -8.357238 
PRIMCOORD
170 1
Li	      7.84941      2.43047     -2.40717         0.009725      0.000738     -0.001678
Li	      7.89159     12.51106     -0.67490         0.008161     -0.000705     -0.000545
Li	     16.23861     10.36410      1.49276         0.028213      0.013755     -0.007289
Li	     16.27678      8.61755     -8.61281         0.029040      0.007523     -0.012565
Li	      7.81734      4.42050     -0.50319         0.007249     -0.003393     -0.023092
Li	      7.81103      8.66273     -4.67228        -0.009152      0.016041     -0.016093
Li	     16.20051      6.42436     -2.47445         0.034405      0.010522     -0.006089
Li	     16.30312     10.58055     -6.63733         0.021289      0.009449     -0.006657
Li	      7.77766      6.41377      1.44870        -0.007877      0.010967     -0.017479
Li	      7.85322     10.61352     -2.67149         0.006941      0.024324      0.003376
Li	     16.26514      8.38816     -0.47081         0.025779      0.010641     -0.011753
Li	     16.23855     12.58450     -4.67334         0.037724      0.005085     -0.009199
Li	      2.14100      2.03204     -0.11083         0.008780     -0.003234      0.001343
Li	      2.30733      6.34953     -4.37812         0.005539     -0.012780      0.011621
Li	     10.47695      4.29826     -2.36940         0.013678      0.005521      0.002055
Li	     10.46201      8.47503     -6.52259         0.014409     -0.003637      0.011802
Li	      2.13641      4.07754      1.92450         0.014016     -0.006315     -0.005591
Li	      2.17546      8.18642     -2.32305         0.016141      0.004414      0.005360
Li	     10.41394      6.26206     -0.34482         0.003170     -0.019947      0.015861
Li	     10.45200     10.45428     -4.50981         0.007329     -0.015912      0.019223
Li	      2.26664      6.13125      3.76254         0.006631     -0.011705      0.013703
Li	      2.17948     10.22074     -0.27739         0.011986      0.001541      0.001918
Li	     10.42474      8.27543      1.63157         0.013989     -0.010363      0.005612
Li	     10.51533     12.47821     -2.54553         0.012800     -0.000827     -0.007120
Li	      4.28327      4.17014     -0.18777        -0.019854      0.007930     -0.008533
Li	      4.32125     10.29951     -2.41824        -0.014227      0.006884     -0.004815
Ni	     16.44062      6.30024     -6.29970        -0.080059     -0.063039      0.058164
Ni	     16.48038     16.40963     -4.54803        -0.080679     -0.058576      0.060179
Ni	      8.27861     10.20264      1.65684        -0.062855      0.008801      0.075139
Ni	      8.31859      8.45175     -8.44791        -0.064769     -0.069322     -0.014198
Ni	     16.45442      8.27337     -4.31887        -0.040997     -0.052317      0.051527
Ni	     16.48620     12.45139     -8.50228        -0.083457     -0.055383      0.055084
Ni	      8.27908      6.25084     -2.29530        -0.078755     -0.075318      0.001728
Ni	      8.31123     10.41737     -6.46161        -0.000604     -0.039606      0.050188
Ni	     16.44611     10.25443     -2.34151        -0.084792     -0.058612      0.056712
Ni	     16.49471     14.42880     -6.52099        -0.042244     -0.051034      0.050585
Ni	      8.27043      8.21294     -0.30571         0.003958     -0.045595      0.037124
Ni	      8.31747     12.40749     -4.49945        -0.075581     -0.004556      0.073188
Ni	      2.11234      4.14804     -2.17006        -0.149648     -0.013520      0.010993
Ni	      2.18291      8.31334     -6.33922        -0.179176     -0.020135      0.018012
Ni	     10.37534      6.33122     -4.35486        -0.098915     -0.006086     -0.000484
Ni	     10.43704     10.50943     -8.51499        -0.133419     -0.036720      0.019255
Ni	      2.11797      6.12596     -0.18164        -0.152402     -0.018175      0.019416
Ni	      2.15787     10.29353     -4.37289        -0.151614     -0.020256      0.018994
Ni	     10.39385      8.30526     -2.36338        -0.116852     -0.020031      0.028124
Ni	     10.43305     12.47377     -6.55290        -0.116548     -0.027029      0.018674
Ni	      2.14205      8.09238      1.79858        -0.177608     -0.016646      0.015618
Ni	      2.15202     12.28255     -2.39541        -0.150334     -0.014780      0.023212
Ni	     10.39650     10.26706     -0.39978        -0.133806     -0.015804      0.037279
Ni	     10.41505     14.46488     -4.57816        -0.102367      0.000085      0.005832
Ni	      4.25732      4.06898     -4.05943         0.051936      0.021384     -0.018299
Ni	      4.29726     14.17126     -2.31626         0.044378      0.019510     -0.000881
Ni	     12.43773     12.20867     -0.35989         0.049717      0.037048     -0.044359
Ni	     12.47793     10.46988    -10.45644         0.046244      0.042144     -0.036521
Ni	      4.22505      6.08815     -2.12295         0.058830      0.066428     -0.057257
Ni	      4.31115     10.22057     -6.26276         0.034356     -0.010443      0.004081
Ni	     12.43446      8.27089     -4.30507         0.034325      0.037215     -0.028962
Ni	     12.49499     12.43339     -8.47755         0.001940      0.018984     -0.019302
Ni	      4.27126      8.01543     -0.10822         0.032138      0.000767     -0.002319
Ni	      4.26423     12.23543     -4.33545         0.060002      0.056766     -0.071349
Ni	     12.45522     10.22969     -2.32333         0.004408      0.021021     -0.021943
Ni	     12.47431     14.41473     -6.51819         0.030845      0.027810     -0.037350
Ni	      6.19564      6.20016     -4.22310         0.009740      0.048225     -0.047243
Ni	      6.26129     10.35412     -8.40235        -0.031737      0.062117      0.004451
Ni	     14.36045      8.32539     -6.34623        -0.047926      0.028405     -0.028467
Ni	     14.40669     12.50202    -10.52583        -0.033716      0.024447     -0.013081
Ni	      6.22000      8.15887     -2.24501        -0.032623      0.081839      0.009329
Ni	      6.25926     12.35806     -6.40631        -0.027835     -0.010342     -0.080215
Ni	     14.36868     10.29832     -4.36806        -0.011289      0.033278     -0.020953
Ni	     14.40873     14.47774     -8.54538        -0.012849      0.016607     -0.033882
Ni	      6.22121     10.15666     -0.24211        -0.034244     -0.001951     -0.070362
Ni	      6.23382     14.33566     -4.44707         0.020479      0.047701     -0.043622
Ni	     14.36672     12.27832     -2.39216        -0.036800      0.014421     -0.026982
Ni	     14.39996     16.45574     -6.57236        -0.046911      0.030240     -0.025899
O	      4.09917      4.23668     -2.19194         0.107719     -0.174393      0.183540
O	      4.14810      8.36761     -6.39700         0.131894     -0.139418      0.145750
O	     12.36533      6.42852     -4.45186         0.068100     -0.168098      0.182665
O	     12.43852     10.58937     -8.60979         0.127869     -0.169248      0.163699
O	      4.10572      6.15280     -0.27352         0.108867     -0.169317      0.175687
O	      4.14608     10.38648     -4.40034         0.106143     -0.180974      0.173652
O	     12.39740      8.38721     -2.45885         0.123051     -0.171248      0.153683
O	     12.43683     12.56872     -6.63515         0.121630     -0.155763      0.172792
O	      4.10694      8.15051      1.74414         0.130735     -0.158889      0.154889
O	      4.13940     12.30379     -2.48364         0.102738     -0.178008      0.169063
O	     12.39841     10.36182     -0.47921         0.129666     -0.165647      0.165363
O	     12.40484     14.56154     -4.67581         0.067380     -0.182360      0.167946
O	      6.36678      4.32065     -4.30441        -0.084002     -0.156222      0.131195
O	      6.40521     14.41636     -2.56721        -0.084881     -0.139758      0.158842
O	     14.31446      6.44057     -6.43584         0.092023     -0.137205      0.145150
O	     14.35339     16.54548     -4.68765         0.094287     -0.142496      0.139305
O	      6.36064      6.28740     -2.34353        -0.102319     -0.134908      0.158558
O	      6.39073     10.46014     -6.50528        -0.003484     -0.143759      0.142678
O	     14.30954      8.41212     -4.46290         0.101182     -0.140625      0.127026
O	     14.35956     12.58910     -8.63644         0.143697     -0.131473      0.123221
O	      6.34925      8.25925     -0.34769         0.012336     -0.144937      0.143754
O	      6.39877     12.45626     -4.53562        -0.096508     -0.158936      0.141528
O	     14.31958     10.38898     -2.47936         0.141070     -0.122937      0.130510
O	     14.34949     14.57230     -6.65894         0.101052     -0.127490      0.136936
O	      4.35302      5.95843     -3.99796        -0.246757      0.095812     -0.092574
O	      4.40523     10.15419     -8.15115        -0.171615      0.099179     -0.098139
O	     12.47369      8.16610     -6.19216        -0.196943      0.103418     -0.104762
O	     12.53913     12.35257    -10.36190        -0.194256      0.099534     -0.109614
O	      4.36145      7.99554     -2.00705        -0.172431      0.100082     -0.112491
O	      4.40043     12.11874     -6.24341        -0.168110      0.113280     -0.097030
O	     12.49947     10.15182     -4.20657        -0.205102      0.097529     -0.115448
O	     12.53972     14.31656     -8.39899        -0.209821      0.115437     -0.099447
O	      4.36490      9.90383     -0.04209        -0.175719      0.096880     -0.097431
O	      4.39176     14.11053     -4.20536        -0.252823      0.089146     -0.098130
O	     12.49907     12.11396     -2.24272        -0.193929      0.109213     -0.097333
O	     12.51342     16.30155     -6.41336        -0.199660      0.108630     -0.107603
O	      6.08107      1.86874     -1.86761         0.016178      0.249080     -0.230993
O	      6.11850      6.04822     -6.04525         0.019371      0.225101     -0.253164
O	     14.39119      3.99117     -3.99214         0.049915      0.230668     -0.226547
O	     14.42946      8.17042     -8.17093         0.051252      0.226082     -0.228259
O	      6.12560      3.83619      0.11025         0.005015      0.183950     -0.189788
O	      6.11744      8.02265     -4.06894         0.004975      0.255286     -0.212804
O	     14.38687      5.96760     -2.01215         0.045937      0.222478     -0.233080
O	     14.43940     10.14874     -6.19110         0.036709      0.227079     -0.233284
O	      6.07601      5.82423      2.08753         0.008450      0.220215     -0.254980
O	      6.16397     10.00011     -2.08181        -0.000492      0.184799     -0.188072
O	     14.40091      7.94315     -0.03832         0.036380      0.237188     -0.233389
O	     14.42560     12.12237     -4.21544         0.042171      0.231227     -0.222290
O	      0.15792      2.13555     -0.15925         0.014405     -0.141022      0.159497
O	      0.21592      6.32006     -4.34796         0.028134     -0.153636      0.153467
O	      8.44138      4.38676     -2.41385        -0.002524     -0.185384      0.187667
O	      8.43580      8.45215     -6.59926         0.002554     -0.110678      0.215394
O	      0.15799      4.11464      1.81825         0.008734     -0.156950      0.145635
O	      0.19817      8.29326     -2.36065         0.006353     -0.144910      0.155195
O	      8.39328      6.23743     -0.45349         0.009867     -0.136118      0.237357
O	      8.43119     10.56439     -4.49048         0.006162     -0.226669      0.140820
O	      0.17528      6.10171      3.79160         0.029532     -0.152666      0.153451
O	      0.19768     10.27081     -0.38128         0.012714     -0.157670      0.138134
O	      8.39554      8.35284      1.65297         0.000029     -0.217696      0.104284
O	      8.47946     12.52264     -2.63515        -0.002086     -0.186620      0.184997
O	      2.03036      4.23078     -0.27396         0.066079     -0.145369      0.133474
O	      1.99638      8.40940     -4.46110         0.093198     -0.125857      0.151663
O	     10.12647      6.42787     -2.37655         0.195368     -0.107738      0.066508
O	     10.20418     10.59523     -6.63968         0.071334     -0.141581      0.137459
O	      1.95663      6.21430      1.70237         0.087005     -0.147371      0.132321
O	      2.07018     10.38673     -2.47768         0.067979     -0.138205      0.144918
O	     10.16423      8.39200     -0.48451         0.070127     -0.132824      0.141009
O	     10.16537     12.48723     -4.67482         0.189286     -0.065824      0.103202
O	      1.95069      2.26387     -2.25715         0.091731     -0.123662      0.152740
O	      1.99036     12.36917     -0.51108         0.090671     -0.149706      0.127548
O	     10.12530     10.28434      1.47914         0.195981     -0.068533      0.104916
O	     10.16613      8.63045     -8.53092         0.185894     -0.103360      0.065566
O	     16.24540      8.21390     -6.23338         0.178445      0.121824     -0.117691
O	     16.28566     12.39221    -10.41680         0.162747      0.120765     -0.118221
O	      8.14593      6.18167     -4.20742         0.157214      0.141933     -0.134517
O	      8.15897     10.33443     -8.48562         0.159236      0.167766     -0.113074
O	     16.25434     10.18661     -4.25357         0.169826      0.116074     -0.125498
O	     16.29456     14.36355     -8.43410         0.167531      0.126052     -0.119705
O	      8.11844      8.12696     -2.30516         0.149625      0.176811     -0.099655
O	      8.15720     12.42365     -6.37530         0.153774      0.106284     -0.175125
O	     16.24561     12.16886     -2.28210         0.163957      0.118703     -0.120438
O	     16.28483     16.34335     -6.46145         0.178557      0.116081     -0.123867
O	      8.11838     10.24524     -0.22500         0.165265      0.101922     -0.164005
O	      8.18376     14.31882     -4.42751         0.167116      0.139453     -0.142855
O	      2.12791      9.98752      1.86835        -0.041139      0.134191     -0.136592
O	      2.16808      8.24415     -8.23436        -0.036134      0.134067     -0.136141
O	     10.56910     12.14723     -0.42581        -0.149475      0.176839     -0.092225
O	     10.60874     10.53555    -10.39602        -0.143870      0.090294     -0.170593
O	      2.09752      6.05439     -2.08410        -0.061295      0.138998     -0.135662
O	      2.19935     10.21297     -6.26838        -0.049029      0.132356     -0.131522
O	     10.56353      8.33247     -4.24953        -0.134205      0.101937     -0.183558
O	     10.61271     12.40381     -8.44714        -0.150381      0.143916     -0.149889
O	      2.15776      8.02145     -0.10153        -0.043961      0.131168     -0.130138
O	      2.13670     12.19621     -4.30184        -0.059006      0.135342     -0.135768
O	     10.57345     10.19864     -2.29462        -0.155762      0.151525     -0.144261
O	     10.60305     14.35971     -6.58018        -0.132273      0.182081     -0.099339
