# total energy = -798.40308704 eV
 
CRYSTAL
PRIMVEC
0.004721 5.934894 5.937226 
16.353693 4.234984 -4.223863 
0.012797 8.409409 -8.412185 
PRIMCOORD
170 1
Li	      8.03160      8.23363      3.64071         0.013659      0.017097     -0.015775
Li	      7.97038     12.41716     -0.54499         0.018526      0.004229     -0.005030
Li	     15.97406      4.54594     -4.45661         0.005772      0.017056      0.000116
Li	     16.07176     14.62026     -2.75004         0.003227      0.005041     -0.013426
Li	      7.98895      4.29618     -0.32484         0.027674      0.010548     -0.014952
Li	      7.98008      8.46944     -4.49751         0.018358      0.002661     -0.007989
Li	     16.25279      6.33875     -2.48034         0.000169     -0.015658     -0.016279
Li	     16.02076     10.75399     -6.67425         0.007863      0.017454     -0.019433
Li	      8.00968      6.26130      1.65428         0.016062      0.016482     -0.015437
Li	      7.79077     10.52004     -2.60801        -0.004086      0.019975     -0.020410
Li	     16.26318      8.41697     -0.38399         0.009027      0.027261     -0.008855
Li	     16.01195     12.70663     -4.73263        -0.003219      0.031228      0.012494
Li	      2.21324      2.16902     -0.25290         0.008519     -0.003063      0.014485
Li	      2.18852      6.37149     -4.41678         0.010409      0.000762      0.014001
Li	     10.43734      4.30581     -2.32201         0.002655     -0.005974      0.009632
Li	     10.31501      8.47288     -6.42938         0.008986     -0.009699      0.004427
Li	      2.15797      4.15885      1.79620         0.013256     -0.012324      0.013405
Li	      2.16348      8.33000     -2.36822         0.007933     -0.005294      0.000449
Li	     10.45097      6.28209     -0.33833         0.004438     -0.007757      0.006718
Li	     10.42542     10.53616     -4.58384         0.002916     -0.023590      0.015651
Li	      2.18964      6.17292      3.74114         0.006980     -0.016507      0.011068
Li	      2.23169     10.35812     -0.41972         0.002094      0.000995     -0.003619
Li	     10.44437      8.26728      1.62629         0.005835     -0.009539      0.010519
Li	     10.32120     12.38169     -2.53975         0.006987     -0.009928      0.015003
Li	     12.45583      8.55212     -8.53629        -0.037557     -0.004721      0.005264
Li	     14.08067      7.93437     -2.03340         0.024716      0.000310      0.001922
Ni	     16.36140     12.28048     -0.40502        -0.135570      0.038017      0.085712
Ni	      0.03886     12.28530     -0.41621        -0.140298     -0.069462     -0.004007
Ni	      8.13578     10.10523      1.77092        -0.077253     -0.049210      0.052476
Ni	      8.14176     14.29182     -2.41838        -0.040432     -0.050982      0.041490
Ni	     16.31979      8.32836     -4.35230        -0.116147     -0.076411      0.003788
Ni	      0.02172      8.28343     -4.33916        -0.022570     -0.038550      0.048632
Ni	      8.13594      6.15537     -2.18770        -0.070550     -0.042590      0.043252
Ni	      8.13007     10.34273     -6.37757        -0.084854     -0.036874      0.046357
Ni	     16.31904     10.25043     -2.32040        -0.066427     -0.028213      0.006217
Ni	      0.04695     10.27959     -2.36801        -0.110728      0.013468      0.051694
Ni	      8.14963      8.13417     -0.21310        -0.078574     -0.042813      0.035680
Ni	      8.13352     12.32741     -4.41116        -0.085828     -0.041349      0.036910
Ni	      2.07106      4.18844     -2.19035        -0.094553     -0.011220      0.013579
Ni	      2.12959      8.39085     -6.39907        -0.109501     -0.030022      0.019282
Ni	     10.26210      6.28634     -4.30478        -0.198178     -0.044118      0.033437
Ni	     10.24763     10.49149     -8.50697        -0.146707     -0.022084      0.034609
Ni	      2.09649      6.16658     -0.20118        -0.131194     -0.042507     -0.031974
Ni	      2.13042     10.34917     -4.42899        -0.093362     -0.026892      0.040197
Ni	     10.28477      8.27553     -2.33923        -0.114911      0.006463      0.027599
Ni	     10.27251     12.46458     -6.52808        -0.196439     -0.037676      0.026277
Ni	      2.10736      8.12403      1.74961        -0.130053      0.017554      0.044672
Ni	      2.11382     12.35537     -2.45685        -0.081682     -0.011463      0.005940
Ni	     10.30474     10.25198     -0.34291        -0.173689     -0.032887      0.005819
Ni	     10.24796     14.44736     -4.55607        -0.146975     -0.028815      0.032787
Ni	      4.12574     10.08464      1.78637         0.049922      0.055294     -0.045720
Ni	      4.14264      8.38391     -8.36314         0.050045      0.044049     -0.040013
Ni	     12.35763     12.18032     -0.30678         0.040013      0.054996     -0.006260
Ni	     12.35085     16.38597     -4.51628         0.067470      0.070122     -0.078854
Ni	      4.11892      6.14060     -2.16510         0.010534      0.034219     -0.049455
Ni	      4.15054     10.35094     -6.38757        -0.021978      0.046385     -0.030963
Ni	     12.30616      8.25373     -4.31241         0.046295      0.040827     -0.056078
Ni	     12.39439     12.38331     -8.43586         0.031849      0.000727      0.000047
Ni	      4.14373      8.10394     -0.18293        -0.012635      0.033302     -0.030878
Ni	      4.12892     12.33405     -4.42675         0.016537      0.027427     -0.059232
Ni	     12.33115     10.25412     -2.32264         0.063293      0.037229     -0.062644
Ni	     12.39026     14.36404     -6.44458         0.049043      0.020185     -0.009651
Ni	      6.04185      6.19945     -4.21305        -0.036409      0.046260     -0.056733
Ni	      6.07693     10.41282     -8.43119        -0.026752      0.047054     -0.036171
Ni	     14.31353      8.33206     -6.34381        -0.004479      0.023287     -0.058520
Ni	     14.32870     12.53941    -10.57543        -0.026834      0.096191      0.010439
Ni	      6.04635      8.17210     -2.22928        -0.001902      0.045068     -0.032524
Ni	      6.07084     12.39480     -6.45472        -0.036801      0.027861     -0.041233
Ni	     14.27450     10.31570     -4.39021        -0.097101      0.041475      0.016429
Ni	     14.37233     14.48601     -8.54561        -0.067382      0.008729     -0.020709
Ni	      6.04969     10.15014     -0.24843         0.000206      0.037341     -0.034401
Ni	      6.07019     14.37372     -4.47267        -0.048076      0.061692     -0.054115
Ni	     14.30511     12.28525     -2.37817        -0.076294      0.015955     -0.022477
Ni	     14.32770     16.49965     -6.62108         0.027091      0.011510     -0.116671
O	      4.05421      4.29699     -2.30852         0.061727     -0.175919      0.181671
O	      4.12092      8.50559     -6.51509         0.107960     -0.173880      0.155862
O	     12.21203      6.39532     -4.38961         0.150579     -0.155390      0.145022
O	     12.23052     10.51924     -8.60276         0.100495     -0.178832      0.169622
O	      4.09518      6.26184     -0.32182         0.103606     -0.170723      0.181111
O	      4.11547     10.48672     -4.54401         0.123474     -0.157789      0.165318
O	     12.28886      8.41229     -2.45146         0.113209     -0.190924      0.182366
O	     12.22380     12.51173     -6.57980         0.159289     -0.142582      0.138444
O	      4.10267      8.24159      1.66074         0.099071     -0.188843      0.172120
O	      4.08308     12.47546     -2.58098         0.067261     -0.168882      0.181430
O	     12.27582     10.33505     -0.47595         0.120115     -0.180334      0.183678
O	     12.22728     14.53358     -4.58080         0.098530     -0.164970      0.178597
O	      5.99958      4.31421     -4.29788         0.084225     -0.146358      0.129535
O	      6.01475     14.46054     -2.59002         0.095333     -0.140241      0.142217
O	     14.42641      6.44536     -6.42327        -0.081011     -0.137796      0.124393
O	     14.46178     16.59968     -4.74838        -0.086316     -0.139909      0.163335
O	      5.99515      6.28542     -2.32836         0.129088     -0.133629      0.146128
O	      6.00794     10.50581     -6.54149         0.168382     -0.135628      0.127990
O	     14.39388      8.41561     -4.46161        -0.091052     -0.128099      0.142146
O	     14.45265     12.60014     -8.66533         0.000771     -0.127858      0.145584
O	      6.00510      8.26052     -0.34061         0.159022     -0.130165      0.131114
O	      5.99910     12.48718     -4.56448         0.140784     -0.139631      0.143963
O	     14.22935     10.38464     -2.48209         0.179295     -0.132683      0.134402
O	     14.48455     14.60394     -6.66615        -0.078018     -0.151867      0.126084
O	      4.15418      6.03820     -4.05318        -0.190839      0.091006     -0.095044
O	      4.19788     10.26880     -8.27316        -0.205849      0.082727     -0.105913
O	     12.43056      8.13874     -6.21247        -0.235882      0.088333     -0.103092
O	     12.47539     12.33794    -10.32801        -0.190719      0.094110     -0.098663
O	      4.18062      8.02047     -2.06873        -0.185232      0.093767     -0.085600
O	      4.19008     12.23531     -6.30966        -0.211701      0.102189     -0.089432
O	     12.39574     10.14241     -4.21177        -0.204606      0.118080     -0.115438
O	     12.50816     14.27288     -8.33658        -0.162467      0.112172     -0.103834
O	      4.18619      9.99140     -0.09637        -0.186766      0.081040     -0.085817
O	      4.17311     14.22218     -4.31591        -0.205201      0.105984     -0.092385
O	     12.41725     12.14404     -2.20092        -0.193476      0.127988     -0.112735
O	     12.47311     16.25636     -6.40107        -0.266643      0.079375     -0.081703
O	      6.15432      1.85309     -1.84158         0.053589      0.233450     -0.236321
O	      6.11770     11.97581     -0.10208         0.028061      0.207919     -0.212618
O	     14.21734      9.91506      1.95024         0.001932      0.261294     -0.257523
O	     14.28972     14.12126     -2.24354         0.002461      0.222935     -0.230990
O	      6.14924      3.82877      0.13401         0.049475      0.227504     -0.234431
O	      6.11814      8.02588     -4.05498         0.028920      0.215434     -0.211308
O	     14.37320      5.97525     -1.97075         0.004671      0.223923     -0.200858
O	     14.26514     10.16161     -6.21452         0.025037      0.242814     -0.263767
O	      6.15109      5.80839      2.11355         0.050570      0.243151     -0.234960
O	      6.06767      9.99577     -2.07218         0.025207      0.205155     -0.207611
O	     14.35822      7.91108     -0.05940         0.013968      0.200454     -0.250423
O	     14.28186     12.14066     -4.20755         0.022698      0.241460     -0.226183
O	      0.16241      2.23597     -0.25599         0.015629     -0.203490      0.201393
O	      0.13575      6.36231     -4.50055         0.021726     -0.117844      0.244971
O	      8.35742      4.28733     -2.29774         0.029510     -0.160603      0.167403
O	      8.32404      8.47152     -6.48496         0.012355     -0.160934      0.150147
O	     16.31432      8.27020     -2.49084         0.022275     -0.092509      0.233512
O	      0.15382      8.44044     -2.34416         0.023333     -0.257518      0.119546
O	      8.37292      6.26671     -0.32396         0.024196     -0.150153      0.155482
O	      8.33609     10.45998     -4.50602         0.012654     -0.159734      0.154078
O	      0.14311      6.19710      3.86241         0.022366     -0.253016      0.083012
O	      0.19252     10.42044     -0.50901         0.026471     -0.205348      0.206763
O	      8.36933      8.24147      1.65248         0.020882     -0.165709      0.152746
O	      8.32739     12.41406     -2.53656         0.006177     -0.146453      0.158993
O	      1.81725      4.27541     -0.18766         0.251700     -0.099556      0.061614
O	      1.92412      8.46174     -4.51691         0.084627     -0.144554      0.125405
O	     10.11812      6.39369     -2.42657         0.085403     -0.127469      0.151572
O	     10.10811     10.58030     -6.61778         0.092282     -0.139482      0.117337
O	      1.93889      6.25540      1.65533         0.052195     -0.154537      0.187890
O	      1.89808     10.36244     -2.54602         0.224523     -0.065395      0.129412
O	     10.14189      8.37881     -0.45853         0.061319     -0.148103      0.134631
O	     10.10934     12.56080     -4.64757         0.088754     -0.114072      0.152171
O	      1.85543      8.14151      3.63720         0.262064     -0.059136      0.099552
O	      1.88709      6.50868     -6.41363         0.247023     -0.115283      0.064034
O	     10.11539     10.33679      1.54006         0.106395     -0.124688      0.107544
O	     10.18374     14.52647     -2.65402         0.073296     -0.130746      0.127880
O	     16.24313      8.26965     -6.27357         0.211597      0.144343     -0.141897
O	     16.24411     12.47552    -10.64069         0.166077      0.183320     -0.079245
O	      7.92424      6.08354     -4.10041         0.174999      0.123637     -0.110822
O	      7.95311     10.27388     -8.29172         0.198276      0.108208     -0.116893
O	     16.16502     10.21658     -4.36876         0.213567      0.177991     -0.072856
O	     16.27013     14.49121     -8.47869         0.147296      0.076830     -0.162811
O	      7.92990      8.07405     -2.12439         0.148797      0.112900     -0.120627
O	      7.94689     12.25873     -6.32252         0.188513      0.120512     -0.121212
O	     16.19407     12.29476     -2.29589         0.213239      0.074686     -0.182578
O	     16.30100     16.43667     -6.55453         0.156332      0.137744     -0.156185
O	      7.92996     10.04445     -0.14600         0.157646      0.112002     -0.122666
O	      7.95007     14.23762     -4.33667         0.214108      0.114690     -0.111402
O	      2.25026     10.01606      1.73063        -0.168731      0.129797     -0.069139
O	      2.28063      8.42987     -8.27955        -0.144983      0.084880     -0.174193
O	     10.23330      6.20259     -6.19633        -0.048981      0.141569     -0.151435
O	     10.21725     10.41265    -10.40793        -0.055422      0.128865     -0.126356
O	      2.23580      6.19007     -2.09395        -0.155226      0.072048     -0.138223
O	      2.25070     10.29758     -6.33013        -0.148020      0.141663     -0.143399
O	     10.22214      8.18462     -4.23443        -0.064217      0.142259     -0.142659
O	     10.27083     12.38448     -8.42020        -0.046282      0.131267     -0.143543
O	      2.26486      8.07538     -0.14937        -0.154838      0.130580     -0.133792
O	      2.23509     12.25383     -4.47249        -0.164542      0.167862     -0.069803
O	     10.44362     10.20832     -2.27595        -0.190168      0.102196     -0.097305
O	     10.24871     14.35686     -6.44879        -0.039594      0.141557     -0.131517
