# total energy = -797.09715757 eV
 
CRYSTAL
PRIMVEC
-0.000065 5.927264 5.927618 
16.156594 4.210393 -4.210881 
-0.115182 8.625277 -8.625136 
PRIMCOORD
170 1
Li	      7.73249      2.37269     -2.37226         0.002615      0.020995     -0.023523
Li	      7.68512      6.67901     -6.67848         0.001698      0.017314     -0.028820
Li	     15.99247     10.40342      1.43377         0.036615      0.016595     -0.006491
Li	     16.08497     14.61069     -2.80878         0.033708      0.041271     -0.010393
Li	      7.73971      4.34805     -0.39767         0.004778      0.016572     -0.018318
Li	      7.68102      8.66200     -4.70865         0.003182      0.017582     -0.022098
Li	     16.10381      6.31213     -2.46388         0.041319      0.026438     -0.019980
Li	     16.04816     10.72682     -6.67002         0.040486      0.023289     -0.028254
Li	      7.74249      6.31785      1.58547         0.005076      0.027810     -0.015213
Li	      7.66804     10.63830     -2.73512         0.000185      0.023576     -0.017882
Li	     16.14128      8.37600     -0.41858         0.030992      0.009912     -0.040645
Li	     15.94285     12.75533     -4.83411         0.024784      0.006047     -0.010557
Li	      2.22151      2.23777     -0.30851         0.033764      0.013591      0.028234
Li	      2.11787      6.49648     -4.55694         0.015919     -0.018905      0.006757
Li	     10.27034      4.39359     -2.42287        -0.029651      0.006527      0.000746
Li	     10.24035      8.69220     -6.71850        -0.011581      0.004189      0.002035
Li	      2.17609      4.19430      1.77153         0.013392     -0.007537      0.014469
Li	      2.16611      8.57584     -2.60175         0.035449     -0.026266     -0.013759
Li	     10.29668      6.35715     -0.42680        -0.008411     -0.001502     -0.000206
Li	     10.20912     10.68730     -4.75306        -0.026666      0.000075     -0.005489
Li	      2.28043      6.27664      3.57217         0.031542     -0.013978     -0.020664
Li	      2.22601     10.62531     -0.71182         0.027161      0.017042      0.008547
Li	     10.26904      8.34012      1.54472        -0.044840      0.007533     -0.008689
Li	     10.21139     12.64712     -2.77311        -0.044784      0.008192     -0.010670
Li	     13.86905     10.32870     -8.33724         0.035843     -0.025109     -0.020945
Li	     13.92741      7.97604     -2.06454         0.035546      0.020194      0.029144
Ni	     16.12739     12.23777     -0.39119        -0.078427     -0.048866      0.021077
Ni	     -0.06164      6.43178     -6.41292        -0.146196     -0.027421      0.026200
Ni	      8.00278      4.20510     -4.20302        -0.085078     -0.034435      0.045117
Ni	      7.94235     14.44191     -2.59102        -0.102829     -0.031176      0.038387
Ni	     16.10382      8.29028     -4.34475        -0.071561     -0.034913      0.089791
Ni	     16.04490     12.60907     -8.64939        -0.067229     -0.085744      0.022212
Ni	      8.00786      6.18326     -2.22670        -0.115792     -0.037295      0.036486
Ni	      7.95064     10.49223     -6.54434        -0.119963     -0.037065      0.033870
Ni	     -0.00374      6.05261      1.83257        -0.142484     -0.039263      0.028350
Ni	     -0.08527     10.37238     -2.45962        -0.078671     -0.013224      0.053579
Ni	      7.99978      8.15749     -0.24957        -0.103388     -0.042950      0.041110
Ni	      7.94600     12.46822     -4.56610        -0.093946     -0.048706      0.036742
Ni	      2.02930      4.21264     -2.21252        -0.123318      0.068526      0.000766
Ni	      1.94553      8.50051     -6.50241        -0.025512      0.053367     -0.003633
Ni	     10.17790      6.33485     -4.36003        -0.176090     -0.025231      0.026763
Ni	     10.09740     10.65113     -8.67204        -0.158497      0.008182     -0.014510
Ni	      2.00479      6.13971     -0.23326        -0.024941      0.008788     -0.048367
Ni	      1.97188     10.47959     -4.57545        -0.126104      0.008828     -0.062536
Ni	     10.15558      8.31198     -2.38607        -0.156579     -0.011631      0.006650
Ni	     10.11937     12.62501     -6.69510        -0.168615     -0.019785      0.010430
Ni	      1.97607      8.14946      1.73293         0.022875      0.048933     -0.048256
Ni	      1.91866     12.46150     -2.58406         0.023323      0.050027     -0.051809
Ni	     10.17157     10.28918     -0.40483        -0.176376     -0.007056      0.022409
Ni	     10.11260     14.59731     -4.72206        -0.169058     -0.000166     -0.000877
Ni	      3.96603      4.23791     -4.19994         0.025937      0.045405     -0.048467
Ni	      3.89440     14.44185     -2.59349         0.104272      0.068285      0.018553
Ni	     12.14002     12.30159     -0.45443        -0.024746      0.029393      0.136529
Ni	     12.05123     16.63125     -4.78473         0.047191      0.000356      0.157479
Ni	      3.98689      6.18641     -2.22488        -0.034266      0.056144      0.023894
Ni	      3.93083     10.49111     -6.54856        -0.038601     -0.016803     -0.056203
Ni	     12.11943      8.36587     -4.41721        -0.044686      0.043437     -0.022814
Ni	     12.06196     12.68181     -8.72558        -0.045635      0.031675     -0.034769
Ni	      3.95121      8.15909     -0.24785         0.090024     -0.024937     -0.074508
Ni	      3.90986     12.46673     -4.59988         0.019899      0.029312     -0.038123
Ni	     12.10881     10.35236     -2.43927         0.064724     -0.155635     -0.008785
Ni	     12.08168     14.64637     -6.73414        -0.026033     -0.133790     -0.020958
Ni	      5.92284      6.23993     -4.25225        -0.079960      0.034670     -0.010080
Ni	      5.85658     10.54264     -8.58198        -0.053563      0.035048     -0.012989
Ni	     14.08858      8.42571     -6.44863        -0.036687      0.118576      0.020334
Ni	     13.95145     12.82172    -10.84010        -0.002643      0.100354      0.037788
Ni	      5.91281      8.21937     -2.27585        -0.055414      0.020443     -0.049520
Ni	      5.86663     12.51860     -6.60170        -0.081960      0.004494     -0.034086
Ni	     14.00486     10.48320     -4.55997         0.008653     -0.038450     -0.101239
Ni	     14.03074     14.71285     -8.78453        -0.037062     -0.028876     -0.114169
Ni	      5.90694     10.18984     -0.30435        -0.082897      0.052426     -0.046957
Ni	      5.85030     14.49820     -4.62435        -0.074237      0.054718     -0.049379
Ni	     14.04020     12.45122     -2.56151        -0.385175      0.731994     -1.082921
Ni	     13.98192     16.75251     -6.88289        -0.382227      1.073728     -0.726594
O	      4.00523      4.36038     -2.36889         0.096949     -0.212454      0.168228
O	      3.81737      8.62639     -6.65568         0.133212     -0.182776      0.164161
O	     12.16655      6.51715     -4.53258         0.137343     -0.103479      0.069744
O	     12.09442     10.83235     -8.84922         0.120578     -0.110725      0.066204
O	      3.87357      6.29310     -0.35973         0.135246     -0.164217      0.184217
O	      3.94779     10.63503     -4.72237         0.102068     -0.159496      0.210191
O	     12.15315      8.48966     -2.56776         0.118902     -0.072883      0.117793
O	     12.10854     12.79718     -6.87710         0.131747     -0.069119      0.110217
O	      3.86503      8.31189      1.60307         0.012347     -0.170546      0.238377
O	      3.80822     12.59064     -2.74615         0.007058     -0.232310      0.166189
O	     12.15717     10.46461     -0.58753         0.125864     -0.127493      0.106097
O	     12.09818     14.77916     -4.89664         0.122584     -0.103305      0.118870
O	      5.83901     10.27542      1.57763         0.150189     -0.123917      0.128477
O	      5.77484     14.57756     -2.73574         0.218437     -0.120731      0.123746
O	     13.99233     12.47752     -0.64950         0.087969     -0.218037      0.717218
O	     13.91633     10.91801    -10.90088        -0.007060     -0.111270      0.912498
O	      5.85173      6.33309     -2.35852         0.296425     -0.108497      0.088669
O	      5.79591     10.62484     -6.69529         0.292481     -0.093645      0.104729
O	     13.97472      8.56101     -4.56248         0.150605     -0.050188      0.108189
O	     13.91729     12.82637     -8.91846         0.151039     -0.112196      0.051983
O	      5.83120      8.30092     -0.38352         0.221962     -0.115810      0.119382
O	      5.78277     12.61621     -4.70973         0.149128     -0.127706      0.124141
O	     13.97402     10.54226     -2.65621        -0.010443     -0.911059      0.115761
O	     13.93399     14.84163     -6.90920         0.091680     -0.729620      0.215086
O	      4.04290      6.11163     -4.09809        -0.165563      0.106081     -0.178852
O	      3.97022     10.38938     -8.43303        -0.205064      0.129733     -0.113041
O	     12.16452      8.27549     -6.30282        -0.225879      0.063809     -0.068318
O	     11.96039     12.57175    -10.59409        -0.110089      0.093581     -0.068831
O	      4.02641      8.07057     -2.12262        -0.206753      0.112319     -0.137948
O	      3.98734     12.36462     -6.47367        -0.168182      0.180924     -0.096957
O	     12.01498     10.23377     -4.30661        -0.113375      0.077755     -0.098792
O	     12.10701     14.56719     -8.63513        -0.225674      0.069247     -0.066841
O	      4.00858     10.03508     -0.16350        -0.191395      0.165424     -0.100497
O	      3.95249     14.35735     -4.46990        -0.196799      0.100019     -0.165740
O	     12.03694     12.20376     -2.32126         0.187388      0.154851     -0.117235
O	     11.97866     16.51328     -6.63620         0.192910      0.115645     -0.149909
O	      6.02655      7.69895      4.14762         0.038755      0.198072     -0.209944
O	      5.96955      6.08978     -6.07890         0.039331      0.195842     -0.196080
O	     14.24098      9.95448      1.89257         0.198203      0.200645     -0.000003
O	     14.22739      8.37327     -8.27542         0.108061      0.641650      0.000448
O	      6.03421      3.74318      0.19610         0.038430      0.201583     -0.201469
O	      5.97543      8.06736     -4.10200         0.038135      0.195061     -0.202528
O	     14.26846      6.03822     -1.99221        -0.002497      0.119814     -0.182766
O	     14.21066     10.25877     -6.40105        -0.001440      0.179982     -0.113190
O	      6.02757      5.71962      2.17357         0.040842      0.205574     -0.193217
O	      5.96628     10.04285     -2.13028         0.043404      0.208172     -0.201402
O	     14.28385      7.91430     -0.10748         0.111013     -0.003282     -0.647671
O	     14.18384     12.30348     -4.39047         0.205732     -0.011728     -0.177930
O	      0.12287      2.20684     -0.22781         0.013427     -0.164185      0.124223
O	     16.04552     10.71733     -8.73261        -0.010799     -0.113571      0.179219
O	      8.21787      4.30155     -2.32380         0.033518     -0.136218      0.202184
O	      8.15799      8.61285     -6.64018         0.030360     -0.138517      0.219347
O	     16.10329      8.37149     -2.45290        -0.020172     -0.170351      0.110131
O	      0.06872      8.49261     -2.56640         0.012697     -0.130859      0.173130
O	      8.21564      6.27900     -0.34747         0.032009     -0.215648      0.139506
O	      8.15959     10.58859     -4.66234         0.034744     -0.200660      0.144149
O	      0.20029      6.14709      3.70719         0.004606     -0.126646      0.135426
O	      0.14579     10.48508     -0.57997         0.009424     -0.142642      0.126793
O	      8.20940      8.25084      1.62909         0.038807     -0.185296      0.195256
O	      8.15157     12.56335     -2.68399         0.037772     -0.205318      0.177479
O	      1.95984      4.27308     -0.32528         0.071889     -0.176865      0.141881
O	      1.89949      8.59277     -4.63532         0.077671     -0.149774      0.184418
O	      9.98599      6.43824     -2.48089         0.088690     -0.145113      0.126970
O	      9.92852     10.74621     -6.79903         0.087608     -0.133863      0.150743
O	      1.99607      6.12921      1.60454         0.119550     -0.109770      0.204916
O	      1.90961     10.53455     -2.71619         0.093226     -0.019896      0.210374
O	      9.97848      8.40863     -0.50640         0.101653     -0.127295      0.152614
O	      9.93094     12.72929     -4.82098         0.096896     -0.150182      0.142552
O	      1.96569      2.35398     -2.26685         0.102257     -0.215996      0.017113
O	      1.93663      6.66248     -6.49123         0.122756     -0.209100      0.112633
O	      9.98823     10.38772      1.46365         0.102071     -0.128584      0.141377
O	      9.92094      8.77217     -8.76981         0.104238     -0.156946      0.137064
O	     15.96517      8.23818     -6.26691         0.207046      0.095521     -0.087168
O	     -0.00117      8.36740     -6.37083        -0.097872      0.073940     -0.089788
O	      7.78486      6.11190     -4.13173         0.206997      0.160365     -0.118400
O	      7.72474     10.41974     -8.45328         0.193240      0.158749     -0.107331
O	      0.06451      6.01100     -0.10290        -0.116613      0.095736     -0.075556
O	     15.90667     14.53154     -8.59699         0.205776      0.087630     -0.092493
O	      7.78090      8.09141     -2.15385         0.192313      0.110419     -0.158606
O	      7.72900     12.39764     -6.47312         0.203119      0.114638     -0.156400
O	      0.02154      7.97591      1.89048        -0.030520      0.057172     -0.030262
O	     -0.03590     12.30190     -2.40913        -0.032803      0.023394     -0.059203
O	      7.77118     10.06296     -0.18008         0.215362      0.149888     -0.139108
O	      7.71509     14.37308     -4.49677         0.214014      0.137310     -0.154469
O	      2.08706      4.28788     -4.10842        -0.193448      0.072057     -0.142642
O	      2.00165      8.49916     -8.39376        -0.282516     -0.053996     -0.143837
O	     10.24728      6.27518     -6.25416        -0.061282      0.102508     -0.134559
O	     10.16414     16.48832     -4.64182        -0.095515      0.110588     -0.119887
O	      2.07152      6.11465     -2.13620        -0.244376      0.119512     -0.071484
O	      2.01416     10.40364     -6.47744        -0.245993      0.075981     -0.121917
O	     10.23253      8.23042     -4.30251        -0.076128      0.095112     -0.108738
O	     10.17504     12.56831     -8.59132        -0.079345      0.095775     -0.093040
O	      2.05801      8.02990     -0.23253        -0.276244      0.144544      0.052943
O	      2.03074     12.37581     -4.65085        -0.195366      0.140010     -0.066500
O	     10.22312     10.20868     -2.29500        -0.103701      0.127888     -0.114422
O	     10.18890     14.51929     -6.63569        -0.055418      0.124118     -0.097394
