# total energy = -798.47179508 eV
 
CRYSTAL
PRIMVEC
0.000157 5.905628 5.906000 
16.745981 4.197329 -4.197243 
0.018513 8.329936 -8.329988 
PRIMCOORD
170 1
Li	      7.93601      2.33737     -2.33696         0.011558     -0.004391      0.006457
Li	      8.25662      6.45361     -6.35857         0.009711      0.017170     -0.019130
Li	     16.62036      4.38731     -4.29220         0.009711      0.017170     -0.019130
Li	     16.31825      8.60100     -8.60057         0.011558     -0.004391      0.006457
Li	      7.93886      4.29930     -0.36090         0.015334      0.000391     -0.001576
Li	      7.90987      8.54564     -4.60748         0.029001      0.016380     -0.015938
Li	     16.27360      6.47934     -2.54111         0.029001      0.016380     -0.015938
Li	     16.32110     10.56294     -6.62452         0.015334      0.000391     -0.001576
Li	      7.93618      6.27472      1.60024         0.010202     -0.006948      0.005243
Li	      8.25674     10.29701     -2.51552         0.005642      0.018502     -0.015926
Li	     16.62048      8.23071     -0.44915         0.005642      0.018502     -0.015926
Li	     16.31843     12.53836     -4.66337         0.010202     -0.006948      0.005243
Li	      2.22202      2.13882     -0.19640         0.001715     -0.002330      0.013001
Li	      2.29069      6.35733     -4.39401         0.016962     -0.016830      0.034606
Li	     10.65442      4.29103     -2.32764         0.016962     -0.016830      0.034606
Li	     10.60427      8.40245     -6.46002         0.001715     -0.002330      0.013001
Li	      2.22232      4.13423      1.79930         0.001719     -0.011440      0.002566
Li	      2.29096      8.33105     -2.41981         0.017121     -0.032943      0.016358
Li	     10.65469      6.26475     -0.35343         0.017121     -0.032943      0.016358
Li	     10.60457     10.39786     -4.46431         0.001719     -0.011440      0.002566
Li	      2.21902      6.10740      3.73697        -0.010218     -0.011454      0.013318
Li	      2.35635     10.34299     -0.49973        -0.002698     -0.022839      0.022201
Li	     10.72008      8.27669      1.56664        -0.002698     -0.022839      0.022201
Li	     10.60126     12.37103     -2.52664        -0.010218     -0.011454      0.013318
Li	      5.90857     11.89725     -2.05287         0.036644     -0.006276      0.003144
Li	     14.27231      9.83095      0.01351         0.036644     -0.006276      0.003144
Ni	     16.67838      6.26067     -6.26013        -0.039103     -0.036480      0.028810
Ni	      0.04000      6.20232     -6.18021        -0.083615     -0.032315      0.011451
Ni	      8.40374      4.13601     -4.11383        -0.083615     -0.032315      0.011451
Ni	      8.31465      8.32697     -8.32650        -0.039103     -0.036480      0.028810
Ni	     16.70641      8.24884     -4.31039        -0.050859     -0.034755      0.037531
Ni	     16.75666     12.37105     -8.43319        -0.084229     -0.014708      0.018348
Ni	      8.37441      6.10742     -2.16957        -0.084229     -0.014708      0.018348
Ni	      8.34268     10.31514     -6.37676        -0.050859     -0.034755      0.037531
Ni	     16.67840     10.19823     -2.32221        -0.038908     -0.032771      0.034213
Ni	      0.04053     10.11794     -2.26448        -0.088726     -0.013632      0.027980
Ni	      8.40426      8.05163     -0.19811        -0.088726     -0.013632      0.027980
Ni	      8.31467     12.26453     -4.38858        -0.038908     -0.032771      0.034213
Ni	      2.28307      4.13793     -2.17399        -0.142100     -0.011160     -0.013414
Ni	      2.23115      8.31850     -6.32930        -0.145025      0.019701      0.010115
Ni	     10.59488      6.25220     -4.26293        -0.145025      0.019701      0.010115
Ni	     10.66532     10.40156     -8.43760        -0.142100     -0.011160     -0.013414
Ni	      2.28341      6.11211     -0.19945        -0.144073      0.011371      0.007712
Ni	      2.23138     10.26686     -4.38103        -0.148346     -0.004005     -0.009770
Ni	     10.59512      8.20056     -2.31466        -0.148346     -0.004005     -0.009770
Ni	     10.66566     12.37575     -6.46307        -0.144073      0.011371      0.007712
Ni	      2.28581      8.07817      1.76595        -0.161359     -0.005363      0.013628
Ni	      2.17064     12.24050     -2.39690        -0.101145      0.002204      0.003141
Ni	     10.53437     10.17420     -0.33053        -0.101145      0.002204      0.003141
Ni	     10.66805     14.34180     -4.49767        -0.161359     -0.005363      0.013628
Ni	      4.33851      4.10425     -4.10395         0.011747      0.012093     -0.024978
Ni	      4.20895      8.32983     -8.30935        -0.009664      0.007978     -0.025395
Ni	     12.57268      6.26353     -6.24298        -0.009664      0.007978     -0.025395
Ni	     12.72076     10.36788    -10.36757         0.011747      0.012093     -0.024978
Ni	      4.32199      6.08593     -2.14774        -0.011601      0.008627     -0.007249
Ni	      4.26437     10.25987     -6.32180         0.006701      0.012640     -0.014680
Ni	     12.62810      8.19356     -4.25542         0.006701      0.012640     -0.014680
Ni	     12.70423     12.34956     -8.41136        -0.011601      0.008627     -0.007249
Ni	      4.33863      8.04195     -0.16573         0.010254      0.023474     -0.015510
Ni	      4.20918     12.24721     -4.39184        -0.010798      0.016734     -0.011300
Ni	     12.57292     10.18091     -2.32547        -0.010798      0.016734     -0.011300
Ni	     12.72088     14.30558     -6.42935         0.010254      0.023474     -0.015510
Ni	      6.24578      6.14780     -4.18438        -0.022080      0.020096     -0.094351
Ni	      6.17460     10.30661     -8.34026        -0.011264      0.019403     -0.061090
Ni	     14.53833      8.24030     -6.27389        -0.011264      0.019403     -0.061090
Ni	     14.62802     12.41143    -10.44800        -0.022080      0.020096     -0.094351
Ni	      6.24585      8.12205     -2.20963        -0.020445      0.094202     -0.023529
Ni	      6.17467     12.27816     -6.36866        -0.013621      0.058315     -0.018225
Ni	     14.53840     10.21185     -4.30229        -0.013621      0.058315     -0.018225
Ni	     14.62809     14.38568     -8.47325        -0.020445      0.094202     -0.023529
Ni	      6.29876     10.05209     -0.20816         0.010911      0.037287     -0.032796
Ni	      6.14939     14.25560     -4.41165        -0.000724      0.028839     -0.026624
Ni	     14.51312     12.18929     -2.34528        -0.000724      0.028839     -0.026624
Ni	     14.68100     16.31572     -6.47178         0.010911      0.037287     -0.032796
O	      4.28612      4.24647     -2.26679         0.140289     -0.141616      0.141402
O	      4.22339      8.42360     -6.47101         0.144350     -0.153264      0.142066
O	     12.58712      6.35730     -4.40464         0.144350     -0.153264      0.142066
O	     12.66837     10.51010     -8.53041         0.140289     -0.141616      0.141402
O	      4.28636      6.20413     -0.30835         0.142267     -0.130662      0.143550
O	      4.22366     10.40904     -4.48572         0.139478     -0.147910      0.157284
O	     12.58739      8.34274     -2.41935         0.139478     -0.147910      0.157284
O	     12.66861     12.46776     -6.57196         0.142267     -0.130662      0.143550
O	      4.29253      8.16869      1.67593         0.121046     -0.135406      0.125042
O	      4.16477     12.38728     -2.54351         0.088497     -0.102936      0.095938
O	     12.52850     10.32097     -0.47713         0.088497     -0.102936      0.095938
O	     12.67478     14.43232     -4.58768         0.121046     -0.135406      0.125042
O	      6.21155      4.25470     -4.24376         0.123573     -0.128028      0.135490
O	      6.09372     14.30914     -2.52807         0.082224     -0.103395      0.108749
O	     14.45745     12.24284     -0.46170         0.082224     -0.103395      0.108749
O	     14.59379     10.51833    -10.50738         0.123573     -0.128028      0.135490
O	      6.18924      6.24987     -2.31218         0.092359     -0.125332      0.124372
O	      6.13450     10.39546     -6.45747         0.101644     -0.114608      0.112842
O	     14.49824      8.32916     -4.39110         0.101644     -0.114608      0.112842
O	     14.57149     12.51350     -8.57579         0.092359     -0.125332      0.124372
O	      6.21163      8.18185     -0.31637         0.120131     -0.137920      0.128626
O	      6.09384     12.37187     -4.46570         0.080852     -0.107164      0.105988
O	     14.45757     10.30557     -2.39933         0.080852     -0.107164      0.105988
O	     14.59388     14.44549     -6.57998         0.120131     -0.137920      0.128626
O	      4.36502      5.98694     -4.03456        -0.136472      0.100493     -0.090266
O	      4.29874     10.19049     -8.20209        -0.167594      0.106039     -0.105383
O	     12.66247      8.12418     -6.13571        -0.167594      0.106039     -0.105383
O	     12.74727     12.25057    -10.29818        -0.136472      0.100493     -0.090266
O	      4.36499      7.97250     -2.04897        -0.131615      0.094068     -0.089526
O	      4.29884     12.14007     -6.25258        -0.163869      0.108592     -0.104756
O	     12.66257     10.07376     -4.18620        -0.163869      0.108592     -0.104756
O	     12.74723     14.23613     -8.31259        -0.131615      0.094068     -0.089526
O	      4.40276      9.92534     -0.08077        -0.149191      0.107579     -0.121168
O	      4.25905     14.13589     -4.29202        -0.148758      0.083920     -0.083727
O	     12.62278     12.06958     -2.22565        -0.148758      0.083920     -0.083727
O	     12.78501     16.18898     -6.34438        -0.149191      0.107579     -0.121168
O	      6.17986      1.83922     -1.83687         0.027369      0.185403     -0.161156
O	      6.37383     11.88407     -0.12670         0.027558      0.191644     -0.180978
O	     14.73757      9.81776      1.93968         0.027558      0.191644     -0.180978
O	     14.56211      8.10285     -8.10049         0.027369      0.185403     -0.161156
O	      6.18834      3.79635      0.14163         0.016620      0.187081     -0.189820
O	      6.23775      7.96923     -4.03104         0.030878      0.211494     -0.217759
O	     14.60148      5.90293     -1.96467         0.030878      0.211494     -0.217759
O	     14.57059     10.05998     -6.12198         0.016620      0.187081     -0.189820
O	      6.18047      5.77476      2.09910         0.022792      0.162659     -0.183684
O	      6.37371      9.97032     -2.04018         0.023183      0.188890     -0.192561
O	     14.73745      7.90402      0.02619         0.023183      0.188890     -0.192561
O	     14.56271     12.03839     -4.16451         0.022792      0.162659     -0.183684
O	      0.16658      2.17448     -0.19522         0.008497     -0.143634      0.150301
O	      0.17058      6.29855     -4.30684         0.023011     -0.161034      0.165963
O	      8.53431      4.23224     -2.24047         0.023011     -0.161034      0.165963
O	      8.54883      8.43811     -6.45883         0.008497     -0.143634      0.150301
O	      0.16660      4.13302      1.76390         0.010717     -0.146512      0.145683
O	      0.17068      8.24460     -2.36093         0.021092     -0.161720      0.166395
O	      8.53441      6.17830     -0.29456         0.021092     -0.161720      0.166395
O	      8.54884     10.39665     -4.49972         0.010717     -0.146512      0.145683
O	      0.06154      6.07326      3.77064         0.005184     -0.117635      0.115504
O	      0.24156     10.22557     -0.38167         0.009733     -0.160218      0.153294
O	      8.60530      8.15927      1.68470         0.009733     -0.160218      0.153294
O	      8.44378     12.33689     -2.49298         0.005184     -0.117635      0.115504
O	      1.96843      4.27112     -0.33264         0.036775     -0.161197      0.156683
O	      2.00270      8.40522     -4.46752         0.062252     -0.148792      0.144622
O	     10.36644      6.33892     -2.40115         0.062252     -0.148792      0.144622
O	     10.35067     10.53475     -6.59625         0.036775     -0.161197      0.156683
O	      1.94940      6.23929      1.65095         0.039374     -0.160334      0.136824
O	      2.01114     10.27996     -2.53612         0.065042     -0.116417      0.159308
O	     10.37488      8.21365     -0.46974         0.065042     -0.116417      0.159308
O	     10.33165     12.50292     -4.61267         0.039374     -0.160334      0.136824
O	      1.94944      8.19291      3.60477         0.035215     -0.133825      0.162576
O	      2.01098      6.47357     -6.34236         0.060555     -0.152172      0.118422
O	     10.37471      4.40727     -4.27599         0.060555     -0.152172      0.118422
O	     10.33168     14.45654     -2.65885         0.035215     -0.133825      0.162576
O	     16.42248      8.16082     -6.20343         0.113043      0.130959     -0.138934
O	     16.51808     12.31188    -10.33613         0.149003      0.094700     -0.115187
O	      8.13583      6.04825     -4.07251         0.149003      0.094700     -0.115187
O	      8.05874     10.22712     -8.26980         0.113043      0.130959     -0.138934
O	     16.42214     10.14176     -4.22218         0.117289      0.134801     -0.133478
O	     16.51841     14.27400     -8.37401         0.148048      0.117068     -0.095208
O	      8.13617      8.01037     -2.11039         0.148048      0.117068     -0.095208
O	      8.05841     12.20807     -6.28855         0.117289      0.134801     -0.133478
O	     16.39785     12.09267     -2.24834         0.088626      0.108849     -0.118017
O	     16.57638     16.21930     -6.37570         0.142268      0.110690     -0.108743
O	      8.19414      9.95567     -0.11208         0.142268      0.110690     -0.108743
O	      8.03412     14.15898     -4.31471         0.088626      0.108849     -0.118017
O	      2.45619      9.97196      1.83921        -0.094359      0.148847     -0.133547
O	      2.32566      8.37075     -8.24359        -0.095349      0.080944     -0.127860
O	     10.68940      6.30445     -6.17722        -0.095349      0.080944     -0.127860
O	     10.83844     16.23559     -4.42441        -0.094359      0.148847     -0.133547
O	      2.44926      6.04260     -2.10393        -0.102801      0.135511     -0.141227
O	      2.38349     10.21662     -6.27887        -0.136533      0.112025     -0.116580
O	     10.74722      8.15032     -4.21250        -0.136533      0.112025     -0.116580
O	     10.83151     12.30623     -8.36754        -0.102801      0.135511     -0.141227
O	      2.45586      8.00488     -0.12776        -0.090028      0.134711     -0.147576
O	      2.32621     12.18102     -4.43295        -0.098881      0.129994     -0.078127
O	     10.68995     10.11472     -2.36658        -0.098881      0.129994     -0.078127
O	     10.83810     14.26851     -6.39137        -0.090028      0.134711     -0.147576
