# total energy = -804.30601328 eV
 
CRYSTAL
PRIMVEC
0.004326 5.940679 5.928507 
16.262550 4.278737 -4.258278 
-0.009154 8.541754 -8.524052 
PRIMCOORD
171 1
Li	      7.96202      2.33221     -2.29847         0.021908     -0.001411     -0.003952
Li	      7.99334      6.55682     -6.52625         0.013420      0.019760     -0.020097
Li	      0.00669      6.12339      5.58991        -0.011156     -0.007205     -0.029861
Li	     15.97880      8.78208     -8.71203         0.025225      0.014402     -0.022554
Li	      7.93690      4.31819     -0.35492         0.021782     -0.005695      0.005746
Li	      7.64015      8.71221     -4.72946         0.050455     -0.022353      0.013363
Li	     16.20360      6.71649     -2.31532        -0.002851      0.020672     -0.010462
Li	     15.86540     10.82094     -6.84596         0.019576     -0.001790     -0.000213
Li	      7.93818      6.28656      1.63057         0.026361     -0.004534      0.003530
Li	      8.00699     10.50278     -2.59510         0.009041      0.021993     -0.016865
Li	     14.91813      9.17121     -1.16957        -0.013391     -0.002673     -0.001692
Li	     15.96210     12.70750     -4.83107         0.020525      0.018481     -0.010260
Li	      2.12712      2.21004     -0.24370        -0.003477     -0.021130      0.046396
Li	      2.23925      6.44781     -4.50855        -0.003345      0.022825      0.021365
Li	     10.46329      4.41435     -2.40831        -0.005993     -0.022550      0.027796
Li	     10.25826      8.57879     -6.51900         0.006820     -0.000998      0.003765
Li	      2.11504      4.22303      1.82315         0.009995      0.010545     -0.000255
Li	      2.20991      8.43480     -2.48817         0.012369     -0.051576      0.046602
Li	     10.28678      6.19064     -0.31540        -0.019677     -0.008867      0.006610
Li	     10.37375     10.63394     -4.70781         0.001629      0.000183     -0.001231
Li	      2.17790      6.23998      3.74152        -0.002315     -0.038913      0.001714
Li	      2.26554     10.45981     -0.58930         0.001563     -0.028370     -0.013551
Li	     10.27094      8.22030      1.77646        -0.004450     -0.015126      0.011427
Li	     10.27227     12.47410     -2.63847         0.000159      0.006985      0.000553
Li	     12.35153     14.62465     -2.76851        -0.029757      0.002882      0.009223
Li	     12.29604      8.37495     -0.26931        -0.032808      0.023463      0.001799
Li	     14.07658      6.00323     -4.06510        -0.005753      0.019859     -0.005038
Ni	     16.23496      6.50245     -6.45114        -0.075568     -0.056091      0.008004
Ni	      0.07025     12.31065     -0.46386        -0.142728     -0.079018      0.105399
Ni	      8.11138      4.19206     -4.16923        -0.084977     -0.050172      0.032032
Ni	      8.07416     14.38577     -2.50117        -0.039692     -0.035905      0.035892
Ni	     16.21542      8.42262     -4.41675        -0.075805     -0.023338      0.005078
Ni	      0.03916      8.37382     -4.41002        -0.068642     -0.126368      0.031250
Ni	      8.12568      6.17683     -2.20595        -0.067362     -0.032644      0.046725
Ni	      8.07959     10.45068     -6.48058        -0.067842     -0.026065      0.033510
Ni	      0.03659      6.22452      1.71624        -0.092781      0.014172      0.039935
Ni	      0.05006     10.34436     -2.44775        -0.076786     -0.035756      0.102105
Ni	      8.12572      8.14407     -0.21875        -0.040039     -0.030374      0.032187
Ni	      8.06367     12.40814     -4.48274        -0.059484     -0.046533      0.033271
Ni	      2.08330      4.26595     -2.23077        -0.132565     -0.057482     -0.005774
Ni	      2.05395      8.50301     -6.52033        -0.046578      0.053000      0.074444
Ni	     10.23945      6.33289     -4.33746        -0.088849      0.028808      0.023236
Ni	     10.14790     10.61320     -8.62322        -0.138136     -0.026982      0.040265
Ni	      2.09418      6.21890     -0.29165        -0.114434      0.011278      0.043403
Ni	      2.07905     10.46390     -4.50918         0.093966     -0.211909     -0.017185
Ni	     10.22447      8.31901     -2.36933        -0.108297     -0.030188     -0.021950
Ni	     10.17083     12.57968     -6.63760        -0.231439     -0.029673      0.055217
Ni	      2.05746      8.22810      1.70051        -0.026807     -0.000198      0.018269
Ni	      2.05845     12.45413     -2.54213        -0.030865     -0.036589     -0.052472
Ni	     10.18837     10.29071     -0.37507        -0.105970     -0.031028      0.024713
Ni	     10.14178     14.55624     -4.66330        -0.155178     -0.048923      0.032485
Ni	      4.10088      4.22637     -4.18755        -0.006181     -0.037779     -0.039462
Ni	      4.02855      8.53196     -8.49905         0.040333     -0.018533     -0.063470
Ni	     12.24202     12.26998     -0.40312         0.033317      0.020972     -0.019198
Ni	     12.23960     16.53649     -4.67303         0.052515      0.033406     -0.023593
Ni	      4.12801      6.19090     -2.21458        -0.010891      0.029194      0.004672
Ni	      4.04652     10.50701     -6.50999         0.079789      0.032613     -0.106948
Ni	     12.26784      8.35125     -4.36140         0.029275      0.027428     -0.017070
Ni	     12.27923     12.53493     -8.58796         0.032020     -0.026797      0.024582
Ni	      4.10855      8.16994     -0.25155        -0.012289      0.006137      0.025295
Ni	      4.07340     12.44981     -4.52341         0.055725      0.124525      0.030159
Ni	     12.21765     10.33700     -2.39370         0.037191      0.047067     -0.047874
Ni	     12.26269     14.52517     -6.59671         0.024874     -0.036776      0.043157
Ni	      6.05023      6.23101     -4.23965         0.019577      0.041265     -0.030677
Ni	      6.00883     10.52276     -8.52748        -0.004463      0.058814     -0.085327
Ni	     14.18163      8.46375     -6.45653        -0.071555      0.056828     -0.045009
Ni	     14.31341     12.66718    -10.68527        -0.050881      0.031772     -0.057076
Ni	      6.05770      8.21536     -2.25626        -0.017603      0.015034     -0.068469
Ni	      6.02185     12.50623     -6.54668        -0.017700      0.067938     -0.073243
Ni	     14.18077     10.46093     -4.47881        -0.053268      0.013407     -0.052095
Ni	     14.26300     14.65223     -8.72037        -0.087126      0.086092     -0.088656
Ni	      6.05661     10.19986     -0.29365        -0.049761      0.070897     -0.035857
Ni	      6.01703     14.48291     -4.57045        -0.023029      0.074920     -0.049194
Ni	     14.18826     12.44703     -2.52478         0.026320      0.076106     -0.042725
Ni	     14.26227     16.67254     -6.75533         0.041398      0.054751     -0.022900
O	      4.07565      4.35082     -2.34723         0.127939     -0.167272      0.191109
O	      3.99227      8.66516     -6.65732         0.072823     -0.177415      0.183682
O	     12.26486      6.49436     -4.47766         0.110518     -0.185578      0.170238
O	     12.13531     10.67224     -8.74806         0.134895     -0.154188      0.140900
O	      4.08423      6.32864     -0.37432         0.118120     -0.172349      0.163627
O	      4.04351     10.60442     -4.65963         0.029006     -0.193378      0.203510
O	     12.24051      8.48149     -2.49964         0.083128     -0.162994      0.209436
O	     12.11426     12.66428     -6.72638         0.236014     -0.067050      0.085418
O	      3.98023      8.31059      1.60674         0.065253     -0.166993      0.153539
O	      3.94625     12.60803     -2.66205         0.223129     -0.125352      0.119456
O	     12.19278     10.38219     -0.53377         0.095174     -0.148058      0.165418
O	     12.11764     14.67897     -4.73271         0.169728     -0.123669      0.131945
O	      5.97948     10.28428      1.59253         0.156953     -0.140649      0.147119
O	      5.91192     14.57688     -2.68654         0.110700     -0.161326      0.160975
O	     14.33606     12.51409     -0.62491        -0.110116     -0.150241      0.139516
O	     14.40834     16.72459     -4.86681        -0.094872     -0.139234      0.123720
O	      5.98835      6.32400     -2.34972         0.118401     -0.136420      0.135953
O	      5.92160     10.61588     -6.64046         0.107020     -0.159510      0.158264
O	     14.15467      8.53889     -4.56225         0.206925     -0.171546      0.128502
O	     14.38271     12.76373     -8.78948        -0.095192     -0.147123      0.140919
O	      5.98301      8.31687     -0.37130         0.127132     -0.152364      0.147513
O	      5.94292     12.59751     -4.65466         0.057026     -0.158732      0.161258
O	     14.36980     10.56123     -2.57960        -0.054515     -0.145458      0.163220
O	     14.38257     14.76641     -6.83229        -0.083167     -0.135558      0.153815
O	      4.17814      6.09298     -4.09928        -0.190389      0.142236     -0.126724
O	      4.10704     10.40446     -8.39710        -0.201285      0.147597     -0.103869
O	     12.29513      8.23704     -6.26678        -0.169857      0.104478     -0.134479
O	     12.39485     12.47614    -10.48093        -0.154807      0.142292     -0.122094
O	      4.18506      8.07745     -2.11781        -0.189265      0.113334     -0.140715
O	      4.12812     12.38062     -6.39176        -0.218592      0.118393     -0.144085
O	     12.29739     10.23370     -4.27474        -0.216176      0.126581     -0.095367
O	     12.37122     14.44647     -8.49930        -0.033306      0.118536     -0.116827
O	      4.15885     10.05818     -0.14938        -0.170663      0.114192     -0.116903
O	      4.11553     14.33978     -4.44900        -0.171420      0.082168     -0.125169
O	     12.22344     12.22509     -2.26993        -0.128908      0.116205     -0.126831
O	     12.27223     16.41117     -6.56220        -0.072965      0.137564     -0.158592
O	      6.13153      7.76578      4.10258         0.029577      0.234215     -0.232777
O	      6.14259      6.08504     -6.06533         0.034651      0.226099     -0.217030
O	     14.40548      4.05142     -4.00779         0.016662      0.188607     -0.230033
O	     14.16150      8.35753     -8.29780         0.002399      0.196850     -0.232531
O	      6.12546      3.80552      0.15238         0.046654      0.226942     -0.237622
O	      6.05080      8.05169     -4.07726         0.026729      0.213676     -0.209386
O	     14.38939      5.97036     -2.05569        -0.016543      0.227577     -0.192794
O	     14.13743     10.29050     -6.30126         0.025702      0.217270     -0.255367
O	      6.13175      5.78605      2.13082         0.047286      0.239584     -0.225732
O	      6.14984     10.04107     -2.11870         0.040912      0.216060     -0.223368
O	     14.15823      7.94479     -0.06870        -0.031148      0.198263     -0.199357
O	     14.15681     12.29337     -4.36091         0.043123      0.258086     -0.203530
O	     16.21653      6.42918     -4.58514        -0.001227     -0.104428      0.221193
O	      0.15907      6.50658     -4.52054        -0.019505     -0.225594      0.191660
O	      8.33736      4.31277     -2.31043         0.035584     -0.163510      0.160101
O	      8.26275      8.57423     -6.56072         0.000727     -0.158185      0.172151
O	      0.04417      4.38633      1.79227         0.015106     -0.239819      0.116211
O	      0.10932      8.47917     -2.55054         0.027174     -0.199983      0.242851
O	      8.30597      6.27633     -0.33329         0.022466     -0.153085      0.161227
O	      8.28120     10.54263     -4.61137         0.005514     -0.169295      0.164678
O	      0.11302      6.31237      3.58054         0.003637     -0.218304      0.182355
O	      0.17198     10.44526     -0.58212        -0.001117     -0.207767      0.235267
O	      8.29722      8.25425      1.65104         0.020143     -0.156854      0.167229
O	      8.27465     12.51537     -2.61257        -0.001504     -0.152237      0.174031
O	      1.92719      4.35428     -0.37239         0.045059     -0.172005      0.169857
O	      1.89486      8.55337     -4.52378         0.168052     -0.623788      0.085938
O	     10.12297      6.43863     -2.45503         0.069540     -0.151685      0.148535
O	     10.04971     10.69789     -6.73500         0.099168     -0.176904      0.123854
O	      1.87455      6.23661      1.59714         0.214072     -0.096934      0.101741
O	      1.91235     10.42095     -2.61220         0.154424     -0.087457      0.628103
O	     10.17982      8.38068     -0.46287         0.067861     -0.128979      0.152534
O	     10.03817     12.66254     -4.74927         0.106216     -0.107828      0.154650
O	      1.82981      2.37847     -2.21924         0.205484     -0.115762      0.094154
O	      1.92202     12.43448     -0.58274         0.258395     -0.010181      0.001374
O	     10.09473      4.44542     -4.41529         0.077003     -0.158170      0.131334
O	     10.11349     14.64956     -2.75999         0.071719     -0.137645      0.152367
O	     16.08101      8.40209     -6.46360         0.213018      0.145383     -0.074372
O	     -0.00355      8.26664     -6.30755         0.095755      0.162994     -0.164660
O	      7.92064      6.10646     -4.11112         0.122037      0.124294     -0.110532
O	      7.88123     10.36047     -8.37984         0.161688      0.104872     -0.124585
O	     16.10928     10.50136     -4.42557         0.216563      0.089133     -0.144133
O	     16.21171     14.53982     -8.60174         0.051852      0.180235     -0.169839
O	      7.93537      8.08347     -2.13306         0.125657      0.113525     -0.103150
O	      7.89484     12.35291     -6.40037         0.133819      0.123479     -0.112762
O	      0.04675      8.13404      1.79873        -0.013047      0.116994     -0.143004
O	      0.10206     12.23507     -2.34615        -0.141416      0.138228     -0.163912
O	      7.93201     10.05481     -0.14803         0.166571      0.109421     -0.126181
O	      7.89119     14.31702     -4.40716         0.142031      0.111581     -0.104427
O	      2.21491      4.27335     -4.11812        -0.145382      0.122974     -0.143064
O	      2.14316      8.54995     -8.53022        -0.166032      0.063568     -0.035573
O	     10.13950      6.24538     -6.21846        -0.088034      0.132353     -0.133089
O	     10.08894     16.45216     -4.58641        -0.040987      0.149997     -0.153724
O	      2.24311      6.17409     -2.19298        -0.147832      0.130252     -0.137115
O	      2.14042     10.53890     -6.42554        -0.208736      0.146891     -0.631173
O	     10.37886      8.26123     -4.29809        -0.240917      0.081395     -0.100763
O	     10.14006     12.51406     -8.52919        -0.005396      0.167645     -0.179393
O	      2.22982      8.10783     -0.30424        -0.131837      0.139144     -0.126681
O	      2.21152     12.36447     -4.49068        -0.092135      0.776869     -0.089336
O	     10.11865     10.20075     -2.27178        -0.085447      0.152741     -0.130066
O	     10.12015     14.46406     -6.55889        -0.022761      0.177921     -0.182646
