# total energy = -795.80256418 eV
 
CRYSTAL
PRIMVEC
0.001311 5.929096 5.930475 
16.498747 4.238412 -4.235791 
0.046221 8.362741 -8.364137 
PRIMCOORD
171 1
Li	      8.03172      2.29928     -2.29095         0.073568      0.003805     -0.006046
Li	      7.98085      6.47610     -6.47508         0.135738      0.052307     -0.034311
Li	     16.13291     10.42481      1.42645        -0.019418     -0.018424     -0.006788
Li	     16.19825      8.69616     -8.67194         0.076602      0.042407     -0.018985
Li	      8.03034      4.26783     -0.32115         0.095093      0.007037     -0.024743
Li	      7.97423      8.45983     -4.50594         0.122392      0.011818     -0.007252
Li	     16.08807      6.55241     -2.53210        -0.001343      0.011483      0.007170
Li	     16.16103     10.68450     -6.77125         0.072818      0.017849     -0.059824
Li	      7.99493      6.25909      1.64773         0.042685      0.016573      0.009954
Li	      8.00747     10.42462     -2.51817         0.176189      0.034220     -0.048934
Li	     16.12960      8.50558     -0.55436        -0.015614      0.014259      0.004348
Li	     16.14011     12.67896     -4.81552         0.078000      0.042636     -0.040026
Li	      2.20199      2.14934     -0.19908         0.032640     -0.041542      0.063715
Li	      2.25798      6.33976     -4.41665         0.009353     -0.020943      0.025398
Li	     10.49424      4.30202     -2.32406         0.001486     -0.037589      0.025479
Li	     10.33974      8.34063     -6.35736         0.015398     -0.022860      0.017393
Li	      2.18505      4.11963      1.81880        -0.028584     -0.023880      0.033111
Li	      2.19883      8.30591     -2.38962         0.007883     -0.006280      0.017653
Li	     10.37746      6.14748     -0.26730         0.020696      0.015939     -0.035448
Li	     10.37208     10.38492     -4.40245         0.079404     -0.093554      0.039755
Li	      2.25384      6.14791      3.78106        -0.029899      0.043249     -0.065100
Li	      2.20565     10.32468     -0.40713        -0.046421     -0.099925      0.060128
Li	     10.37693      8.17479      1.76145         0.008251      0.055740     -0.019278
Li	     10.36415     12.30487     -2.47355         0.091225     -0.032679      0.086428
Li	     12.58284     14.28807     -2.64988        -0.121834     -0.001637     -0.008443
Li	     12.60930     10.56531     -6.38550        -0.101217     -0.004446      0.003840
Li	     12.59039      8.29336     -0.38426        -0.031368      0.001166      0.004633
Ni	      0.05318      2.12228     -2.11541         0.107378     -0.245221     -0.143627
Ni	      0.05239     12.24151     -0.38696        -0.076645      0.000402      0.178842
Ni	      8.19209      4.16433     -4.16212         0.158015      0.039909      0.138063
Ni	      8.23017     14.26073     -2.40098         0.121134      0.055126      0.062246
Ni	      0.03713      4.08029     -0.12327         0.230139     -0.029578      0.116278
Ni	      0.05272      8.29086     -4.33876        -0.064326     -0.074326      0.006486
Ni	      8.19938      6.13926     -2.18676         0.159724      0.020976     -0.040689
Ni	      8.23000     10.30888     -6.35641         0.093397     -0.064715     -0.049196
Ni	      0.05113      6.06607      1.83647         0.194016      0.100691      0.097479
Ni	      0.04080     10.25149     -2.34815         0.062208     -0.117508      0.043239
Ni	      8.20687      8.11523     -0.20638         0.152823     -0.122073     -0.022805
Ni	      8.21893     12.28651     -4.38112        -0.013460     -0.049616      0.046559
Ni	      2.14809      4.18212     -2.18577         0.049229     -0.278571     -0.221241
Ni	      2.15273      8.37153     -6.39509        -0.093947     -0.020908     -0.033519
Ni	     10.37893      6.27654     -4.29772         0.363831     -0.311107      0.202015
Ni	     10.36313     10.45261     -8.47496        -0.216050     -0.041952      0.040284
Ni	      2.14711      6.13978     -0.22260        -0.121104      0.123462      0.346947
Ni	      2.17195     10.34488     -4.40254        -0.131386     -0.126198     -0.063814
Ni	     10.35032      8.26302     -2.33431        -0.194181      0.019389      0.027271
Ni	     10.36544     12.43129     -6.49256        -0.116438     -0.027838      0.017877
Ni	      2.13297      8.13387      1.74849        -0.211743     -0.008179      0.003437
Ni	      2.17466     12.30649     -2.44125         0.100754      0.251027      0.485646
Ni	     10.34937     10.24401     -0.35338        -0.161028     -0.019762      0.035568
Ni	     10.36643     14.39866     -4.52345        -0.128913     -0.016088      0.032985
Ni	      4.17707      4.15178     -4.13512        -0.199296      0.010436     -0.221181
Ni	      4.21832     14.24854     -2.40279        -0.125801      0.292806      0.007145
Ni	     12.50860     12.13115     -0.27136        -0.080037     -0.090660     -0.160418
Ni	     12.49788     10.40030    -10.39260         0.060672      0.084038     -0.046049
Ni	      4.19630      6.11116     -2.15371         0.130784     -0.099545      0.278134
Ni	      4.21365     10.31084     -6.34607        -0.181676     -0.021275     -0.117217
Ni	     12.51552      8.18297     -4.22622        -0.123089      0.121299      0.044918
Ni	     12.49606     12.37460     -8.42223         0.066729      0.057760     -0.071506
Ni	      4.17672      8.09057     -0.19516        -0.119126      0.207271      0.055590
Ni	      4.23242     12.27064     -4.36615        -0.102580      0.005607     -0.199092
Ni	     12.46040     10.21201     -2.30396        -0.055656      0.117064     -0.059776
Ni	     12.53680     14.32475     -6.41478         0.031545     -0.011926     -0.024108
Ni	      6.10257      6.18003     -4.20100        -0.359485      0.223312     -1.828905
Ni	      6.14562     10.36344     -8.38785        -0.381041      1.342356     -0.882858
Ni	     14.50952      8.28023     -6.31927        -0.082882      0.087442     -0.005667
Ni	     14.46924     12.49129    -10.51164         0.059643      0.065936     -0.059693
Ni	      6.10613      8.15481     -2.22228        -0.268752      1.871750     -0.212267
Ni	      6.15021     12.33757     -6.41035        -0.020930      0.184440      0.188797
Ni	     14.50300     10.27812     -4.32771        -0.584990     -0.054786     -1.166869
Ni	     14.49503     14.44641     -8.53382         0.007505      0.073813     -0.037947
Ni	      6.09559     10.13252     -0.24849        -0.201100     -0.095976      0.150934
Ni	      6.15245     14.31591     -4.43207         0.023480     -0.138703     -0.193712
Ni	     14.50109     12.24465     -2.36686        -0.387064      1.065718     -0.046738
Ni	     14.49572     16.44538     -6.53565        -0.051552      0.050598     -0.082936
O	      4.14659      4.26810     -2.28876        -0.072791     -0.661198      0.057636
O	      4.14151      8.46743     -6.49163         0.156059     -0.128124      0.107783
O	     12.35632      6.33633     -4.35930        -0.136830     -0.134119      0.180868
O	     12.36879     10.48580     -8.50412         0.119562     -0.179016      0.162692
O	      4.14692      6.24288     -0.31002        -0.088121      0.052274      0.675298
O	      4.17418     10.42760     -4.49924         0.201012     -0.121515      0.185590
O	     12.34396      8.36336     -2.36219         0.128439     -0.202510      0.124051
O	     12.37302     12.47065     -6.58081         0.112673     -0.210961      0.233291
O	      4.11300      8.23991      1.64757         0.231607     -0.168140      0.146710
O	      4.17573     12.40181     -2.52139        -0.058043     -0.254160      0.209164
O	     12.33918     10.26619     -0.45269         0.159107     -0.087302      0.132171
O	     12.37359     14.48806     -4.55989         0.108238     -0.239308      0.213397
O	      6.05175     10.22158      1.63453         0.033297     -0.511158     -0.028608
O	      6.09052      8.48174     -8.47558         0.009586     -0.561289      0.123514
O	     14.63543     12.33626     -0.48289        -0.004796     -0.071863      0.526954
O	     14.62631     10.61114    -10.59660        -0.057892     -0.180902      0.149389
O	      6.05853      6.26764     -2.31263         1.463607     -0.348471      0.554061
O	      6.08811     10.45126     -6.50548         0.018512     -0.141507      0.487577
O	     14.61024      8.37883     -4.43518         0.097314     -0.509393      0.052429
O	     14.62605     12.57624     -8.63055        -0.103877     -0.156663      0.166415
O	      6.04970      8.25057     -0.33578         0.033188     -0.021725      0.483719
O	      6.09445     12.42702     -4.52206         0.123604     -0.091152      0.054211
O	     14.62244     10.37644     -2.45394         0.235657     -0.747338      0.936058
O	     14.61113     14.54928     -6.63837         0.065305     -0.168191      0.174112
O	      4.23414      6.03388     -4.03692        -1.239376     -0.231552     -0.335879
O	      4.25538     10.20739     -8.23316        -1.027341     -0.385665      0.282653
O	     12.63773      8.11589     -6.13562         0.034936      0.183089     -0.182799
O	     12.61662     12.27635    -10.29749        -0.240475      0.103248     -0.104406
O	      4.23613      7.99226     -2.07481        -1.043486      0.049652      0.184357
O	      4.27831     12.19140     -6.24883        -0.147902      0.156167     -0.060272
O	     12.62968     10.07958     -4.20349        -1.071861     -0.191203      0.106600
O	     12.62955     14.28520     -8.30726        -0.166530      0.091071     -0.107732
O	      4.20855      9.97711     -0.09169        -0.042052      0.105695     -0.116461
O	      4.28138     14.15464     -4.28578        -0.167630      0.115326     -0.127127
O	     12.62896     12.10924     -2.16825        -1.147063     -0.130126      0.242428
O	     12.63020     16.21590     -6.37205        -0.066591      0.136469     -0.109800
O	      6.18061      7.77568      4.08344         0.031335      0.280289     -0.303325
O	      6.15382      6.02739     -6.02418         0.085906      0.215054     -0.089585
O	     14.35467      3.97533     -3.97076        -0.039897      0.193471     -0.245430
O	     14.42863     14.08309     -2.22541         0.087236      0.530012     -0.139507
O	      6.17845      3.82357      0.13103         0.054680      0.101131     -0.303632
O	      6.16185      8.00280     -4.04597         0.014226      0.554789     -0.477020
O	     14.35505      5.95095     -1.99203        -0.023970      0.246186     -0.228103
O	     14.45727     10.11967     -6.17156         0.075043      0.064455     -0.680908
O	      6.17416      5.79847      2.10870        -0.009062      0.211956     -0.224120
O	      6.16644      9.97686     -2.07144         0.076773     -0.014924     -0.260398
O	     14.40965      7.92629     -0.01182        -0.038187      0.197951     -0.154976
O	     14.43126     12.10085     -4.18916        -0.076429      0.665848     -0.662566
O	      0.16903      2.13197     -0.26591        -0.064777     -0.045825      0.163363
O	      0.21701      6.42807     -4.45649        -0.042144     -0.197139      0.166167
O	      8.41350      4.27495     -2.29762        -0.065562     -0.153644      0.183542
O	      8.39367      8.43520     -6.45716        -0.053666     -0.188841      0.179924
O	      0.15714      4.22919      1.85168        -0.027465     -0.193814      0.160607
O	      0.17300      8.27891     -2.49765        -0.048154     -0.116920      0.238398
O	      8.39842      6.24583     -0.31531        -0.102664     -0.161267      0.175448
O	      8.39673     10.41291     -4.48714        -0.071137     -0.125602      0.220101
O	      0.21079      6.18970      3.69815        -0.071186     -0.139751      0.220977
O	      0.17683     10.39252     -0.38676        -0.016557     -0.183375      0.163289
O	      8.39633      8.22261      1.66317        -0.116948     -0.216215      0.147748
O	      8.39419     12.39162     -2.50655        -0.087380     -0.200623      0.139755
O	      1.92999      4.25954     -0.30417        -0.318810     -0.905386      0.831682
O	      1.90149      8.46625     -4.41853         0.155878     -0.168332      0.064548
O	     10.18705      6.37845     -2.42159         0.001437     -0.055698      0.841230
O	     10.28713     10.53293     -6.57479         0.123614     -0.124025      0.164941
O	      1.89484      6.14924      1.65816         0.025788     -0.289516      0.836402
O	      1.94090     10.43189     -2.52714        -0.124779     -0.801737      0.116159
O	     10.25458      8.35239     -0.44214         0.077320     -0.166886      0.196379
O	     10.20979     12.51635     -4.60987         0.075135     -0.137987      0.142143
O	      1.89913      2.30214     -2.20254         0.019135     -0.774671      0.238165
O	      1.90242     12.32468     -0.56390         0.072703     -0.211433      0.650672
O	     10.18333     10.32990      1.53043         0.094883     -0.814071     -0.028552
O	     10.29002     14.47962     -2.62420         0.126179     -0.169180      0.122736
O	     16.40245      8.24386     -6.39334         0.131879      0.218207     -0.174121
O	     16.42098     12.46201    -10.48622         0.093154      0.115105     -0.130861
O	      7.98070      6.07387     -4.09783         1.437394     -0.176096      0.293170
O	      8.03882     10.24551     -8.27025         1.279543     -0.376125      0.303277
O	     16.39899     10.31064     -4.27693         1.445707     -0.004998      0.046341
O	     16.39077     14.40717     -8.59284         0.153451      0.159196     -0.131137
O	      7.99220      8.04989     -2.11705         1.266421     -0.272459      0.177095
O	      8.03417     12.22097     -6.29486         0.125616      0.168653     -0.132730
O	     16.43408     12.21442     -2.33264         1.107342     -0.101578      0.091435
O	     16.39185     16.51990     -6.50493         0.220253      0.102133     -0.194834
O	      7.98111     10.02645     -0.14261         0.018694      0.219018     -0.265887
O	      8.03488     14.19963     -4.31447         0.141837      0.109521     -0.166778
O	      2.30509      4.21364     -4.07153         0.030284      0.193620     -0.928620
O	      2.34715     14.18829     -2.46637         0.012768      0.839640     -0.244330
O	     10.37702      6.20856     -6.19933        -0.112433      0.196114     -0.820950
O	     10.37213     16.30217     -4.44284        -0.048361      0.129407     -0.160326
O	      2.30983      6.07457     -2.11596        -1.342609      0.689574     -0.807706
O	      2.33836     10.37295     -6.28848        -0.047557      0.130120     -0.228154
O	     10.39735      8.17918     -4.22951        -0.056458      0.875457     -0.188969
O	     10.37026     12.35169     -8.39641        -0.059500      0.158730     -0.123032
O	      2.30050      8.02561     -0.25333         0.064659      0.983997     -0.173905
O	      2.34563     12.24003     -4.33435         0.067242      0.169882     -0.793596
O	     10.33553     10.17421     -2.26486        -0.137872      0.093044     -0.094548
O	     10.40284     14.32815     -6.42041        -0.101447      0.144269     -0.135867
