# total energy = -91.06089016 eV
 
CRYSTAL
PRIMVEC
-2.081653 3.970892 -2.079401 
2.081673 3.970899 2.079415 
2.079906 -0.000030 -6.235863 
PRIMCOORD
16 1
Li	     -0.00065      5.95630     -2.07895        -0.001851      0.000399     -0.000673
Li	      2.08019      5.95707     -4.15887         0.000676     -0.002664      0.001621
Li	     -0.00080      1.98548     -2.07904        -0.001614      0.000143     -0.000540
Li	      2.07992      1.98470     -4.15891         0.001898      0.003184      0.001561
Mn	      4.14567      3.97095     -4.14477         0.044148     -0.001237     -0.028706
Mn	      0.01420      3.97094     -4.17135        -0.044177      0.000291      0.029573
Ni	      0.00964      3.97093     -0.01293        -0.007981     -0.000005      0.015719
Ni	      2.06994      3.97087     -2.06689         0.007227      0.000302     -0.014546
O	     -0.00213      3.97092     -6.24038         0.000582     -0.000107     -0.011381
O	      0.00341      2.07374     -4.16217        -0.002109      0.070182      0.000810
O	      2.08325      3.97091     -4.15763         0.008575      0.000267      0.000324
O	      2.10346      3.97095      0.02740         0.105201     -0.000257      0.110083
O	      0.00344      5.86816     -4.16217        -0.002201     -0.071205      0.000811
O	      2.07486      6.04454     -6.23336         0.002412      0.071936     -0.000835
O	     -0.02679      3.97091     -2.10470        -0.113115     -0.000019     -0.103134
O	      2.07487      1.89724     -6.23340         0.002328     -0.071209     -0.000687
