# total energy = -804.30278660 eV
 
CRYSTAL
PRIMVEC
-0.000878 5.926545 5.923926 
16.472302 4.199552 -4.199931 
-0.001075 8.382054 -8.377656 
PRIMCOORD
171 1
Li	      8.18319      8.11238      3.68959         0.015165      0.015044     -0.008109
Li	      8.05011      6.43214     -6.42662         0.026484      0.016574     -0.019156
Li	     16.08996      4.50846     -4.46411         0.009637      0.012024     -0.036020
Li	     16.15677      8.64490     -8.60436         0.013165      0.006328     -0.032638
Li	      8.18196      4.21089     -0.20352         0.016587      0.006557     -0.012652
Li	      8.05682      8.41230     -4.45137         0.026520      0.019055     -0.014986
Li	     16.09627      6.53840     -2.55945        -0.009568      0.025673     -0.024822
Li	     16.09461     10.70390     -6.76607        -0.014860      0.030590     -0.039603
Li	      8.02233      6.22861      1.67039         0.024599      0.007464     -0.006734
Li	      7.86209     10.46878     -2.57278         0.026032      0.020401     -0.016589
Li	     16.12645      8.37557     -0.49790         0.014186      0.033698      0.006079
Li	     16.01285     12.62254     -4.74784        -0.013653      0.058593     -0.010867
Li	      2.21493      2.21516     -0.24102        -0.007281      0.006309      0.007822
Li	      2.20654      6.40133     -4.43945         0.002861     -0.005716      0.034601
Li	     10.62938      4.31792     -2.33183         0.023282     -0.005826      0.012979
Li	     10.41359      8.41898     -6.36778         0.006406     -0.007797      0.012676
Li	      2.17170      4.13582      1.76319         0.004229     -0.010018      0.053567
Li	      2.15417      8.30490     -2.40702         0.022833      0.019987     -0.010943
Li	     10.38732      6.12309     -0.25653         0.001101     -0.017172      0.020956
Li	     10.52491     10.47664     -4.53576        -0.008308     -0.018341      0.009139
Li	      2.18644      6.14234      3.77689        -0.005827      0.004362     -0.056281
Li	      2.15939     10.30856     -0.38614         0.017159     -0.023886     -0.007909
Li	     10.37292      8.16669      1.77614         0.000943     -0.023149      0.016101
Li	     10.39410     12.32465     -2.49321         0.007379     -0.010755      0.015190
Li	     12.56271      8.50988     -8.50599        -0.049747     -0.001258      0.002499
Li	     12.56358      8.27756     -0.33879        -0.033920     -0.009948      0.004749
Li	      5.89286      3.85120     -1.86952         0.033573     -0.024224      0.017018
Ni	     16.46662     12.22771     -0.42139        -0.075990     -0.056034      0.038120
Ni	      0.01164     12.22936     -0.40869        -0.077665     -0.052772      0.038766
Ni	      8.15201     10.05458      1.79450        -0.070891     -0.037462      0.043239
Ni	      8.20845     14.22960     -2.37924        -0.043633     -0.036455      0.032123
Ni	     16.47104      8.31569     -4.32898        -0.059710     -0.134861      0.027362
Ni	      0.02644      8.30650     -4.33170        -0.034191     -0.068031      0.034697
Ni	      8.15312      6.10716     -2.15230        -0.060551     -0.044274      0.041489
Ni	      8.19663     10.28869     -6.32654        -0.066497     -0.031965      0.046255
Ni	     16.44290     10.24531     -2.32933        -0.031250     -0.000260      0.031712
Ni	     16.46858     14.49200     -6.56797         0.019428     -0.010704      0.084216
Ni	      8.19598      8.08657     -0.18697        -0.041107     -0.042414      0.036053
Ni	      8.20805     12.27932     -4.37800        -0.079701     -0.029340      0.022847
Ni	      2.05710      4.19919     -2.22334        -0.065578      0.022045      0.004707
Ni	      2.10619      8.39029     -6.41341        -0.071000     -0.005118     -0.008209
Ni	     10.32937      6.22743     -4.25179        -0.126862     -0.018465      0.015146
Ni	     10.32439     10.44586     -8.46102        -0.137204     -0.014860      0.026721
Ni	      2.11530      6.18097     -0.22991         0.019559     -0.542841     -0.132559
Ni	      2.12535     10.36580     -4.42275        -0.084233     -0.008845      0.018204
Ni	     10.34106      8.20816     -2.30075        -0.142382      0.030002      0.035608
Ni	     10.34542     12.41480     -6.48388        -0.187746     -0.044822      0.034453
Ni	      2.12842      8.12670      1.72103        -0.121661      0.028553      0.115126
Ni	      2.13828     12.32384     -2.45685        -0.075685     -0.012781      0.023130
Ni	     10.33927     10.20019     -0.30282        -0.142101     -0.041826     -0.021575
Ni	     10.32201     14.39197     -4.51633        -0.151336     -0.031768      0.024380
Ni	      4.12329     10.09341      1.73490        -0.000266      0.043865     -0.010620
Ni	      4.17560     14.26428     -2.42385         0.014058      0.010008     -0.047750
Ni	     12.45544      6.17101     -6.16380         0.045516     -0.004545     -0.064503
Ni	     12.43253     10.40520    -10.39994         0.044732      0.029022     -0.048977
Ni	      4.11649      6.16714     -2.19720         0.032149      0.013121     -0.201229
Ni	      4.16730     10.32961     -6.36337         0.035757      0.054366     -0.010712
Ni	     12.45701      8.14890     -4.20282         0.036759      0.044358     -0.010417
Ni	     12.48043     12.33588     -8.38324         0.022906     -0.005965      0.020978
Ni	      4.16508      8.10642     -0.20731         0.045525      0.208689     -0.017153
Ni	      4.18673     12.29735     -4.39382         0.000853      0.032973     -0.023412
Ni	     12.40350     10.18066     -2.27808         0.045877      0.064437     -0.034448
Ni	     12.46554     14.31129     -6.40227         0.048813     -0.006341      0.015382
Ni	      6.07599      6.18541     -4.21019        -0.065493      0.028057     -0.041433
Ni	      6.13670     10.34002     -8.36221        -0.031093      0.024467     -0.035464
Ni	     14.44320      8.26393     -6.30255        -0.066817      0.026175     -0.071778
Ni	     14.43892     12.46828    -10.49333        -0.062487      0.045083     -0.014508
Ni	      6.09307      8.14733     -2.22197         0.002099      0.023998     -0.042942
Ni	      6.11818     12.35008     -6.42638        -0.000907      0.006077     -0.096587
Ni	     14.36642     10.25155     -4.32848        -0.077247      0.049128     -0.046559
Ni	     14.44757     14.44009     -8.50366        -0.081530      0.054757     -0.021123
Ni	      6.09398     10.12192     -0.24791         0.005005      0.042663      0.000693
Ni	      6.12230     14.32975     -4.44363         0.002366      0.101306     -0.004284
Ni	     14.36381     12.20689     -2.34472        -0.016016      0.047959     -0.014306
Ni	     14.41927     16.41670     -6.52190        -0.021547      0.000683     -0.062085
O	      4.07204      4.31130     -2.33454         0.092323     -0.121512      0.151308
O	      4.09816      8.48707     -6.50676         0.061085     -0.160975      0.164559
O	     12.32020      6.30830     -4.32744         0.072363     -0.213528      0.229781
O	     12.30622     10.47340     -8.55097         0.123136     -0.175751      0.161687
O	      4.11028      6.26585     -0.35626        -0.112914     -0.224895      0.204405
O	      4.13088     10.45500     -4.52031         0.104860     -0.159857      0.145353
O	     12.33584      8.34375     -2.33051         0.121703     -0.198846      0.175981
O	     12.30579     12.46593     -6.53651         0.160353     -0.139079      0.139718
O	      4.11946      8.25109      1.63477         0.143012     -0.148415      0.130497
O	      4.14096     12.41975     -2.54985         0.112352     -0.140595      0.156758
O	     12.33011     10.23578     -0.43202         0.122435     -0.191074      0.175678
O	     12.29999     14.48214     -4.54255         0.131654     -0.151336      0.164831
O	      5.99833      4.29824     -4.27153         0.105099     -0.154684      0.149790
O	      6.05123     14.39786     -2.54795         0.093375     -0.136464      0.147449
O	     14.54339     12.30475     -0.45793        -0.080381     -0.138982      0.143672
O	     14.56261     10.58329    -10.57545        -0.103956     -0.143261      0.136886
O	      5.99234      6.24750     -2.32281         0.082249     -0.161758      0.166716
O	      6.04600     10.45332     -6.49219         0.079205     -0.146529      0.132818
O	     14.54518      8.36210     -4.42951         0.014449     -0.170502      0.158022
O	     14.58439     12.56497     -8.60425        -0.033539     -0.145996      0.146846
O	      6.02746      8.23830     -0.33945         0.106857     -0.156434      0.155555
O	      6.05559     12.45310     -4.55083         0.109379     -0.150995      0.154620
O	     14.29910     10.33170     -2.43498         0.157349     -0.124354      0.126596
O	     14.56432     14.52676     -6.61410        -0.158445     -0.123063      0.134855
O	      4.17156      6.05900     -4.08787        -0.182429      0.111553     -0.055683
O	      4.23535     10.22723     -8.25173        -0.137217      0.116197     -0.120925
O	     12.56283      8.05840     -6.10795        -0.160779      0.121955     -0.104531
O	     12.57960     12.27887    -10.26775        -0.206841      0.117657     -0.117906
O	      4.21153      8.03064     -2.09091        -0.201375      0.108180     -0.108378
O	      4.24291     12.21356     -6.27888        -0.216519      0.089780     -0.115097
O	     12.49755     10.03779     -4.15653        -0.108660      0.133873     -0.123772
O	     12.58272     14.24083     -8.29232        -0.163573      0.111060     -0.121725
O	      4.21303      9.99019     -0.12860        -0.190654      0.040419     -0.115863
O	      4.24747     14.18253     -4.30791        -0.196725      0.111917     -0.088405
O	     12.49849     12.08289     -2.14234        -0.159170      0.103130     -0.115167
O	     12.56731     16.21158     -6.37838        -0.174292      0.123119     -0.113730
O	      6.24965      1.86605     -1.81313         0.029320      0.220620     -0.208930
O	      6.17787     11.94681     -0.10457         0.042700      0.222553     -0.246040
O	     14.34355      9.85199      1.98600         0.018762      0.230506     -0.242022
O	     14.36629     14.04253     -2.21849         0.003658      0.189821     -0.181284
O	      6.24652      3.78825      0.10614         0.029609      0.199787     -0.214754
O	      6.17991      8.00457     -4.04649         0.051123      0.247844     -0.230444
O	     14.41147      5.91291     -1.95013         0.016330      0.234129     -0.235730
O	     14.40494     10.09299     -6.15605        -0.004831      0.214912     -0.214662
O	      6.19470      5.79109      2.11036         0.047264      0.248094     -0.245915
O	      6.12491      9.96410     -2.06538         0.041453      0.244865     -0.244607
O	     14.35818      7.89490      0.02338         0.001916      0.192658     -0.185283
O	     14.29382     12.07497     -4.16659        -0.029544      0.199352     -0.216718
O	      0.18654      2.17600     -0.29787        -0.025275     -0.134477      0.190428
O	      0.19521      6.32455     -4.49482         0.009356     -0.103106      0.200080
O	      8.15084      4.22127     -2.24121         0.000377     -0.164260      0.168161
O	      8.40890      8.41838     -6.43422        -0.003097     -0.182681      0.179524
O	      0.14090      4.20553      1.85148        -0.002358     -0.200332      0.114106
O	      0.13456      8.45175     -2.38407         0.015299     -0.247143      0.109764
O	      8.37950      6.21719     -0.29071         0.000868     -0.163781      0.176500
O	      8.40949     10.41482     -4.46537         0.009387     -0.191030      0.184089
O	      0.12340      6.16067      3.73916        -0.026203     -0.163108      0.235524
O	      0.12167     10.36351     -0.50520         0.018092     -0.184793      0.198410
O	      8.37549      8.19133      1.68108         0.007626     -0.175062      0.161578
O	      8.39487     12.36099     -2.50743         0.003491     -0.169365      0.186661
O	      1.85494      4.30407     -0.23648         0.051281     -0.635938      0.149282
O	      1.88302      8.49600     -4.43269         0.131337     -0.145226      0.118956
O	     10.14899      6.31284     -2.37398         0.084213     -0.130670      0.149783
O	     10.18144     10.53364     -6.57571         0.104300     -0.156430      0.134257
O	      1.95148      6.27481      1.62923         0.057447     -0.068012      0.878830
O	      1.87196     10.44556     -2.53239         0.197206     -0.119299      0.106035
O	     10.25735      8.31199     -0.41274         0.065912     -0.145282      0.151258
O	     10.18464     12.50876     -4.60540         0.116780     -0.127834      0.156387
O	      1.84261      8.13283      3.60033         0.199987     -0.026929      0.109831
O	      1.86268     12.32899     -0.58587         0.205845     -0.092358      0.135622
O	     10.14900      4.34991     -4.33140         0.075137     -0.154651      0.132833
O	     10.25330      8.54823     -8.54123         0.081497     -0.152589      0.153277
O	     16.34378      8.20054     -6.37521         0.143983      0.178847     -0.123153
O	     16.36152     12.39778    -10.53754         0.158983      0.171895     -0.099564
O	      7.94799      6.04016     -4.06381         0.226007      0.110885     -0.109092
O	      8.00686     10.20710     -8.22854         0.144211      0.113892     -0.111662
O	     16.25644     10.27410     -4.23560         0.222162      0.145000     -0.154567
O	     16.34144     14.52770     -8.45072         0.148679      0.110430     -0.195111
O	      7.98305      8.02937     -2.09717         0.176359      0.103172     -0.110179
O	      8.00090     12.20867     -6.28616         0.184364      0.115970     -0.118877
O	     16.26241     12.14698     -2.31036         0.126130      0.116613     -0.140924
O	     16.33135     16.38813     -6.50306         0.111482      0.142134     -0.144624
O	      7.98345      9.99661     -0.12854         0.176006      0.108582     -0.113940
O	      8.01057     14.18767     -4.29966         0.171993      0.117410     -0.105802
O	      2.25523     10.01499      1.69078        -0.159871      0.204185     -0.066279
O	      2.31179     14.20691     -2.49005        -0.126815      0.196749     -0.128019
O	     10.30908     12.07334     -0.22201        -0.056575      0.163749     -0.129375
O	     10.28100     16.29687     -4.44399        -0.071047      0.129846     -0.143113
O	      2.24217      6.21134     -2.12578        -0.078434      0.225128     -0.878313
O	      2.29804     10.39739     -6.31565        -0.135303      0.111780     -0.176595
O	     10.31721      8.11756     -4.17363        -0.065994      0.126121     -0.171835
O	     10.30693     12.34019     -8.37973        -0.061355      0.140394     -0.140054
O	      2.29245      8.08396     -0.18221        -0.057212      0.791546     -0.170945
O	      2.31226     12.26277     -4.35477        -0.138848      0.141043     -0.150825
O	     10.51287     10.15324     -2.24522        -0.215227      0.085423     -0.086057
O	     10.32832     14.31429     -6.41358        -0.055715      0.154859     -0.143921
