# total energy = -816.38599635 eV
 
CRYSTAL
PRIMVEC
-0.002705 5.936995 5.926795 
16.124383 4.082075 -4.082751 
-0.236069 8.628782 -8.613407 
PRIMCOORD
173 1
Li	      8.14985      6.67401     -6.64373        -0.002070     -0.000981      0.010671
Li	      0.07392      4.68670     -4.37024        -0.048537      0.021741     -0.024390
Li	      8.25701      4.08419     -0.43761        -0.009375     -0.002111     -0.035107
Li	      0.20468      2.27239      1.68933        -0.007007      0.016605     -0.023456
Li	      8.28228      6.38593      1.73036        -0.009187      0.004341     -0.031206
Li	      0.13740      8.44994     -0.72227        -0.046158      0.028390     -0.021174
Li	      3.76383      7.78636      4.06220        -0.055749      0.037349     -0.000266
Li	      3.75129      6.21522     -6.18582         0.005057     -0.024652      0.035862
Li	     11.83007      9.70282      1.93968        -0.014192      0.020278     -0.009783
Li	     11.70751     14.17211     -2.31774         0.042344     -0.026852      0.012192
Li	      3.79650      3.91300      0.08012        -0.029620      0.028237     -0.017715
Li	      3.75182      8.20886     -4.27189         0.034020     -0.052965      0.071810
Li	     11.79653      6.06132     -1.77917        -0.033419     -0.015952     -0.011782
Li	     11.75417     10.21925     -6.28479         0.048547     -0.035396      0.029852
Li	      3.81929      5.84096      2.07539        -0.039464      0.022517     -0.018966
Li	      3.68386     10.22193     -2.19059         0.019708     -0.044960      0.031090
Li	     11.77223     12.22157     -4.32239         0.032741     -0.026736      0.027536
Li	      6.03841      3.91931     -2.01045        -0.024491      0.007548     -0.007897
Li	      5.88333      8.33570     -6.28875         0.001362     -0.068087      0.043795
Li	     14.06320      5.91587     -4.02685        -0.006415      0.000231     -0.004974
Li	     13.96033     10.40454     -8.36294         0.021601     -0.063934      0.032935
Li	      5.99111      5.96348     -0.03741        -0.021209     -0.000333      0.001486
Li	      6.10191     10.15204     -4.19893         0.014823     -0.042084      0.073316
Li	     14.02622      7.98409     -1.95759        -0.016839     -0.005157      0.001799
Li	     13.98199     12.31909     -6.43631         0.011146     -0.022892      0.069550
Li	      6.01633      7.95163      2.00428        -0.017749      0.000859     -0.005842
Li	      5.88026     12.22331     -2.40100        -0.014834     -0.061208      0.055543
Li	     14.18334      9.82777      0.03118        -0.005013      0.002259     -0.005650
Li	     13.96789     14.34528     -4.46506         0.001580     -0.044375      0.042981
Ni	     -0.05516      2.17457     -2.15903        -0.004396     -0.012385      0.093139
Ni	     -0.07720     12.36951     -0.51288        -0.063994      0.000790      0.034950
Ni	      8.06686     10.11396      1.75123        -0.023995     -0.023050      0.040366
Ni	      7.88400      8.53591     -8.51864         0.037969     -0.057287     -0.010770
Ni	     16.05765      8.24374     -4.28182        -0.087904      0.021062     -0.024126
Ni	     -0.09253      8.39659     -4.44255         0.266712     -0.893784      0.674313
Ni	      8.02026      6.19592     -2.22290        -0.068673      0.017370      0.009758
Ni	      7.94175     10.45870     -6.49905         0.328962     -0.794507      0.992617
Ni	     -0.00676      6.06822      1.82828        -0.115067     -0.039774     -0.030916
Ni	     -0.12238     10.45362     -2.52338         0.087219     -0.046447      0.064599
Ni	      7.97363      8.20684     -0.30862        -0.066061     -0.045849      0.038120
Ni	      7.95822     12.44335     -4.49975         0.041206      0.011983      0.107560
Ni	      1.93650      4.20735     -2.21600         0.047631      0.014788     -0.017405
Ni	      1.87812      8.50995     -6.51413        -0.121990      0.024541     -0.130424
Ni	     10.03683      6.26874     -4.28707         0.037768      0.051409     -0.013454
Ni	      9.91059     10.56940     -8.56986         0.014776      0.008165     -0.181065
Ni	      1.97066      6.16786     -0.24466        -0.021566      0.031997     -0.039528
Ni	      1.84983     10.49299     -4.55999        -0.082519      0.139626      0.040022
Ni	      9.99376      8.28115     -2.34508        -0.045689      0.025302     -0.000178
Ni	      9.89619     12.53942     -6.57898        -0.032198      0.156632     -0.014368
Ni	      1.94272      8.14368      1.75348        -0.029240      0.012481      0.021871
Ni	      1.87218     12.47802     -2.58160        -0.031992     -0.059888     -0.021545
Ni	     10.01359     10.21831     -0.34149         0.055882     -0.022650     -0.051336
Ni	      9.89825     14.52725     -4.61675         0.036308      0.031254      0.010415
Ni	      3.87954      4.27656     -4.25395         0.055173     -0.003510      0.032567
Ni	      3.82415      8.59193     -8.56643         0.013401      0.007090     -0.006832
Ni	     11.96162     12.25751     -0.40723         0.130166      0.009663     -0.003622
Ni	     11.86013     16.54124     -4.66581         0.084434      0.016160      0.008172
Ni	      3.91365      6.22157     -2.28667         0.053026      0.047306     -0.000893
Ni	      3.78809     10.59803     -6.60595        -0.042222     -0.001103      0.016389
Ni	     12.00053      8.31205     -4.35712         0.105508      0.015296     -0.070106
Ni	     11.85707     12.58882     -8.62635        -0.013352     -0.017563      0.015984
Ni	      3.90533      8.23375     -0.27788         0.058549     -0.017394     -0.019463
Ni	      3.79950     12.52789     -4.62958         0.056515     -0.032696     -0.003927
Ni	     12.00091     10.28091     -2.37522         0.107562      0.053794     -0.004220
Ni	     11.81062     14.57882     -6.66286         0.132930      0.021412     -0.037854
Ni	      5.94900      6.35221     -4.36505         0.134621      0.020378      0.019100
Ni	      5.82120     10.69320     -8.68346         0.140571     -0.001316     -0.109908
Ni	     14.02833      8.42647     -6.44005         0.093322      0.021310     -0.067022
Ni	     13.86336     12.68130    -10.71020         0.197443      0.014880     -0.127797
Ni	      5.93297      8.27725     -2.35841         0.151064      0.064395     -0.039932
Ni	      5.86343     12.65211     -6.70013         0.130497      0.125695     -0.011356
Ni	     13.99226     10.40228     -4.47299         0.126713      0.044841     -0.020835
Ni	     13.94401     14.65576     -8.71714         0.132784      0.107999     -0.010732
Ni	      5.94497     10.31713     -0.40414         0.133854      0.012215     -0.044491
Ni	      5.80687     14.62644     -4.72594         0.142268      0.038997     -0.022032
Ni	     14.04629     12.35933     -2.47755         0.084691      0.059235     -0.045602
Ni	     13.89955     16.62707     -6.73688         0.125370      0.039360     -0.022908
O	      3.84316      4.32219     -2.34253         0.110679     -0.299812      0.096698
O	      3.77109      8.67462     -6.58075         0.135570     -0.098937      0.016140
O	     11.95152      6.42260     -4.42300         0.130604     -0.168279      0.114558
O	     11.82438     10.67969     -8.69621         0.093234     -0.122779      0.159257
O	      3.86919      6.19855     -0.39739         0.111898     -0.074790      0.187841
O	      3.74497     10.63911     -4.69566         0.144480     -0.119367      0.096194
O	     12.08313      8.41232     -2.49629         0.092222     -0.167422      0.167734
O	     11.80406     12.67945     -6.69627         0.102147     -0.120496      0.070811
O	      3.82131      8.30061      1.74210         0.140152     -0.140124      0.062574
O	      3.76495     12.46701     -2.74533         0.137641     -0.078995      0.117358
O	     11.94609     10.36602     -0.49196         0.171902     -0.114289      0.167657
O	     11.81785     14.65077     -4.73037         0.074830     -0.131086      0.068535
O	      6.01932      4.47043     -4.45186         0.010990     -0.116136      0.177089
O	      5.81296      8.75590     -8.73651        -0.129261     -0.037467      0.070108
O	     14.17595      6.48539     -6.47550        -0.197786     -0.058489      0.094012
O	     13.79266     16.67343     -4.80838         0.150658     -0.065759      0.086342
O	      5.87998      6.37300     -2.41709         0.211157     -0.128962      0.069125
O	      5.90056     10.76924     -6.79380         0.169145     -0.142378      0.077816
O	     13.95515      8.49413     -4.54607         0.116386     -0.104020      0.110453
O	     13.96707     12.75975     -8.81756         0.202685     -0.131628      0.141140
O	      6.05562      8.36651     -0.44746        -0.101209     -0.106900      0.156470
O	      5.74262     12.68791     -4.75713         0.131788     -0.067065      0.039069
O	     13.94733     10.45525     -2.54500         0.171874     -0.130234      0.071736
O	     14.11457     14.70283     -6.76796        -0.175727     -0.069808      0.070868
O	      3.93892      6.16519     -4.16252        -0.089355      0.152790     -0.201912
O	      3.83945     10.60678     -8.47242        -0.115794      0.090170     -0.159473
O	     12.03194      8.19505     -6.25524        -0.115596      0.185142     -0.173544
O	     11.86535     12.47803    -10.53367        -0.107640      0.149992     -0.071641
O	      4.05635      8.11889     -2.27274        -0.221371      0.262378     -0.052493
O	      3.83511     12.49733     -6.50959        -0.078734      0.124062     -0.139810
O	     11.98326     10.19273     -4.24937        -0.098218      0.209043     -0.232089
O	     11.96069     14.44559     -8.52797        -0.094693      0.152064     -0.107339
O	      3.97681     10.21521     -0.20184        -0.098360      0.101269     -0.156230
O	      3.80759     14.38582     -4.59436        -0.112485      0.147901     -0.037879
O	     12.03634     12.17525     -2.28969        -0.097751      0.167821     -0.175559
O	     11.90330     16.42130     -6.51532        -0.076262      0.144309     -0.161671
O	      5.87601      7.87831      3.98098        -0.020141      0.111377     -0.079729
O	      5.95619      6.29203     -6.25518        -0.008607      0.149078     -0.164130
O	     13.91385      9.87999      1.95920        -0.035384      0.131252     -0.098872
O	     14.04627     14.24809     -2.39318        -0.002055      0.162413     -0.148741
O	      6.15832      3.96204      0.01434         0.006515      0.096136     -0.088731
O	      5.81084      8.21442     -4.22838        -0.033338      0.146440     -0.243142
O	     14.12910      5.94633     -2.01776         0.010156      0.114736     -0.112262
O	     13.81193     10.31291     -6.34872        -0.027022      0.166769     -0.170769
O	      6.08788      5.91838      2.00103        -0.015966      0.090761     -0.096399
O	      5.76324     10.14312     -2.26587        -0.014564      0.207387     -0.179208
O	     14.15125      7.87923      0.02656        -0.002109      0.132612     -0.155514
O	     13.98871     12.28185     -4.37583        -0.016681      0.154340     -0.163818
O	     15.89297      6.41130     -4.40177        -0.038594     -0.178538      0.228725
O	     15.84102     10.61835     -8.69496        -0.114531     -0.552079      0.007704
O	      7.89159      4.35365     -2.31416        -0.011480     -0.212112      0.161141
O	      7.72939      8.59615     -6.68486        -0.103748     -0.476785     -0.008150
O	     15.86931      8.30027     -2.44618        -0.031605     -0.185512      0.198062
O	     15.86695     12.69986     -6.67805        -0.149204      0.076986      0.688280
O	      7.87670      6.34758     -0.36262        -0.018259     -0.181927      0.195639
O	      7.82969     10.61808     -4.66313        -0.243440      0.095680      0.302025
O	     15.94905     10.36566     -0.43277        -0.061481     -0.245236      0.186192
O	     15.88030     14.58738     -4.74426         0.004528     -0.103140      0.142827
O	      7.88707      8.26892      1.53234        -0.016556     -0.172377      0.202698
O	      7.72333     12.63127     -2.65517        -0.018121     -0.190281      0.078353
O	      1.96315      4.31533     -0.36456         0.107395     -0.122419      0.139348
O	      1.91660      8.64163     -4.65291        -0.271139     -0.181773      0.123551
O	     10.02265      6.41976     -2.42904         0.113218     -0.174127      0.129349
O	      9.96951     10.68037     -6.71843        -0.309723     -0.169882      0.147871
O	      2.01519      6.28426      1.60912         0.097792     -0.118270      0.150580
O	      1.78997     10.58582     -2.66969         0.163147     -0.081901      0.089939
O	      9.84792      8.33583     -0.45663         0.185490     -0.121643      0.105781
O	      9.96601     12.67648     -4.71681         0.077176     -0.117814      0.103422
O	      1.87206      2.32502     -2.28672         0.231402     -0.107071      0.065231
O	      1.94422     12.58950     -0.72882         0.106405     -0.110857      0.125814
O	     10.07843     10.34458      1.51488         0.090981     -0.149815      0.196303
O	      9.92488      8.70722     -8.68457         0.133950     -0.096807      0.104107
O	      0.06113      4.09411     -2.11930        -0.135894      0.145715     -0.111996
O	     -0.00172      8.33046     -6.34789         0.072736      0.142422     -1.059662
O	      8.15799      6.09273     -4.12707        -0.141286      0.091276     -0.122296
O	      8.04195     10.44590     -8.43145        -0.073544      0.198564     -0.806797
O	      0.07776      6.06113     -0.09020        -0.076752      0.116108     -0.104178
O	     -0.01379     10.33184     -4.40462         0.007433      0.966579     -0.147725
O	      7.89805      8.10808     -2.19271         0.117150      0.098640     -0.093351
O	      8.03984     12.38858     -6.41545        -0.030408      0.849907     -0.123163
O	      0.06551      7.99345      1.87470        -0.051521      0.118103     -0.156320
O	     -0.00841     12.33458     -2.41045        -0.143740      0.104368     -0.126848
O	      8.12073     10.08793     -0.18793        -0.233011      0.122902     -0.095101
O	      8.02147     14.37533     -4.49579        -0.179287      0.035765     -0.103152
O	      1.87037      9.99959      1.86013        -0.136347      0.117630     -0.127949
O	      1.91308     14.32103     -2.44837        -0.008367      0.183872     -0.103005
O	      9.97898     12.07435     -0.21338        -0.132258      0.185033     -0.128999
O	      9.99220     10.46683    -10.45111        -0.243895      0.089755     -0.020600
O	      2.02588      6.07653     -2.12123        -0.313271      0.101388     -0.059066
O	      1.77561     10.36654     -6.39952        -0.091642      0.109090     -0.146930
O	     10.13788      8.14446     -4.21957        -0.246273      0.069012     -0.111826
O	      9.84346     12.42487     -8.43456        -0.118063      0.109166     -0.104041
O	      1.92459      8.02653     -0.09944        -0.095779      0.116473     -0.144648
O	      1.92525     12.36872     -4.45883        -0.186651      0.033889     -0.108553
O	     10.13576     10.14674     -2.21523        -0.247911      0.109881     -0.093070
O	      9.83223     14.39599     -6.46676        -0.101256      0.057243     -0.121649
