# total energy = -822.84334921 eV
 
CRYSTAL
PRIMVEC
0.006914 5.915425 5.920399 
16.295969 4.075119 -4.059604 
-0.214573 8.544333 -8.551921 
PRIMCOORD
174 1
Li	      8.20141     12.47190     -0.64271        -0.014769      0.008718      0.005023
Li	      0.05342     10.43434      1.38709        -0.014769      0.008718      0.005023
Li	      8.20845      8.53495     -4.58025        -0.017452     -0.001333     -0.003705
Li	      0.06047      6.49739     -2.55044        -0.017452     -0.001333     -0.003705
Li	      8.39773      6.22660      1.64650        -0.005828      0.046059     -0.009876
Li	      8.22581     10.52088     -2.62752        -0.013963     -0.005430     -0.001411
Li	      0.24975      4.18904      3.67630        -0.005828      0.046059     -0.009876
Li	      0.07783      8.48332     -0.59772        -0.013963     -0.005430     -0.001411
Li	      3.85516      2.00838     -1.75907         0.023007     -0.018761     -0.037872
Li	      3.74266      6.18980     -6.16367         0.003040     -0.004471     -0.007309
Li	     12.00314      4.04594     -3.78887         0.023007     -0.018761     -0.037872
Li	     11.89064      8.22736     -8.19347         0.003040     -0.004471     -0.007309
Li	      3.72895      8.15404     -4.18767         0.005973     -0.002026     -0.001217
Li	     11.87694     10.19160     -6.21747         0.005973     -0.002026     -0.001217
Li	      3.76872      5.67793      1.95167        -0.055033      0.028657      0.023314
Li	      3.78893     10.11982     -2.23065         0.014959      0.000870      0.009255
Li	     11.91671      7.71549     -0.07813        -0.055033      0.028657      0.023314
Li	     11.93692     12.15738     -4.26045         0.014959      0.000870      0.009255
Li	      6.35990      3.77197     -1.81179        -0.018300     -0.075942     -0.155557
Li	      5.92223      8.31742     -6.32375         0.000174     -0.025609     -0.014640
Li	     14.50788      5.80953     -3.84159        -0.018300     -0.075942     -0.155557
Li	     14.07021     10.35498     -8.35356         0.000174     -0.025609     -0.014640
Li	      6.11154      5.79377     -0.01512        -0.009781      0.112527      0.014240
Li	      5.95816     10.27867     -4.40395        -0.003855     -0.023279     -0.006070
Li	     14.25952      7.83133     -2.04492        -0.009781      0.112527      0.014240
Li	     14.10615     12.31623     -6.43375        -0.003855     -0.023279     -0.006070
Li	      6.10784      7.88113      2.01863        -0.017481      0.009687      0.039243
Li	      5.96028     12.25427     -2.39602        -0.015471      0.088023      0.014992
Li	     14.25583      9.91869     -0.01117        -0.017481      0.009687      0.039243
Li	     14.10827     14.29183     -4.42582        -0.015471      0.088023      0.014992
Ni	      0.00881      8.03814      3.77999        -0.037297     -0.092056      0.019877
Ni	     -0.09484      6.36267     -6.36029        -0.186529     -0.010670      0.009287
Ni	      8.15679     10.07570      1.75019        -0.037297     -0.092056      0.019877
Ni	      8.05314      8.40023     -8.39009        -0.186529     -0.010670      0.009287
Ni	     -0.01616      4.15658     -0.20624        -0.042653     -0.004681      0.093620
Ni	     -0.10580      8.33050     -4.39020        -0.090689     -0.070701      0.010056
Ni	      8.13182      6.19413     -2.23604        -0.042653     -0.004681      0.093620
Ni	      8.04218     10.36806     -6.42000        -0.090689     -0.070701      0.010056
Ni	     -0.05035      6.13369      1.75013         0.081727     -0.008045     -0.006156
Ni	     -0.08985     10.31582     -2.42196        -0.039828      0.001307      0.085626
Ni	      8.09763      8.17125     -0.27967         0.081727     -0.008045     -0.006156
Ni	      8.05813     12.35338     -4.45176        -0.039828      0.001307      0.085626
Ni	      1.96572      4.19219     -2.21484         0.028290      0.005407      0.031684
Ni	      1.86778      8.46216     -6.48899        -0.036772     -0.006023     -0.064353
Ni	     10.11370      6.22975     -4.24464         0.028290      0.005407      0.031684
Ni	     10.01576     10.49972     -8.51879        -0.036772     -0.006023     -0.064353
Ni	      1.95048      6.15952     -0.24386         0.052357     -0.026084      0.054249
Ni	      1.88983     10.39446     -4.48771         0.038333      0.005700     -0.051568
Ni	     10.09847      8.19708     -2.27366         0.052357     -0.026084      0.054249
Ni	     10.03781     12.43202     -6.51751         0.038333      0.005700     -0.051568
Ni	      1.97265      8.13957      1.73286         0.029705     -0.041395     -0.016621
Ni	      1.89441     12.37597     -2.50957         0.029968      0.076032      0.024696
Ni	     10.12064     10.17713     -0.29694         0.029705     -0.041395     -0.016621
Ni	     10.04239     14.41353     -4.53937         0.029968      0.076032      0.024696
Ni	      3.94768      4.26004     -4.25636         0.054263     -0.015528     -0.019806
Ni	      3.86183      8.48984     -8.48621         0.289275     -0.052533     -0.033924
Ni	     12.09567      6.29760     -6.28616         0.054263     -0.015528     -0.019806
Ni	     12.00981     10.52739    -10.51602         0.289275     -0.052533     -0.033924
Ni	      3.93425      6.21599     -2.26451         0.099842      0.022750      0.005201
Ni	      3.86110     10.46417     -6.50241         0.045143     -0.013546      0.022949
Ni	     12.08223      8.25355     -4.29431         0.099842      0.022750      0.005201
Ni	     12.00909     12.50173     -8.53221         0.045143     -0.013546      0.022949
Ni	      3.92306      8.19530     -0.30440         0.100586      0.024334     -0.010299
Ni	      3.83614     12.43605     -4.53144         0.054636      0.008644      0.099690
Ni	     12.07104     10.23286     -2.33421         0.100586      0.024334     -0.010299
Ni	     11.98412     14.47361     -6.56125         0.054636      0.008644      0.099690
Ni	      6.05181      6.30822     -4.33790         0.121530      0.064266     -0.034893
Ni	      5.91172     10.51777     -8.55271         0.393380      1.101618     -0.026793
Ni	     14.19979      8.34578     -6.36770         0.121530      0.064266     -0.034893
Ni	     14.05970     12.55533    -10.58251         0.393380      1.101618     -0.026793
Ni	      6.07397      8.28285     -2.36408         0.095044      0.032417     -0.015891
Ni	      5.90111     12.50518     -6.59058         0.138067      0.090782      0.257769
Ni	     14.22196     10.32041     -4.39388         0.095044      0.032417     -0.015891
Ni	     14.04909     14.54274     -8.62038         0.138067      0.090782      0.257769
Ni	      6.04712     10.27332     -0.39586         0.128314      0.026112     -0.058393
Ni	      5.85967     14.51706     -4.66516         0.147074      0.170495      0.212159
Ni	     14.19511     12.31088     -2.42566         0.128314      0.026112     -0.058393
Ni	     14.00765     16.55462     -6.69496         0.147074      0.170495      0.212159
O	      3.84544      4.32745     -2.36795         0.134612     -0.120099      0.129345
O	      3.96093      8.58691     -6.61329         0.061654     -0.107100      0.114254
O	     11.99342      6.36501     -4.39775         0.134612     -0.120099      0.129345
O	     12.10892     10.62447     -8.64310         0.061654     -0.107100      0.114254
O	      3.85312      6.29799     -0.34292         0.152550     -0.153058      0.089700
O	      3.79717     10.48711     -4.60802         0.058012     -0.063332      0.149385
O	     12.00111      8.33555     -2.37272         0.152550     -0.153058      0.089700
O	     11.94515     12.52467     -6.63782         0.058012     -0.063332      0.149385
O	      3.86311      8.25104      1.58877         0.100319     -0.071135      0.105298
O	      3.81126     12.50092     -2.63016         0.078401     -0.055285      0.081549
O	     12.01109     10.28860     -0.44103         0.100319     -0.071135      0.105298
O	     11.95925     14.53848     -4.65996         0.078401     -0.055285      0.081549
O	      6.09545     10.34246      1.49107         0.004543     -0.134641      0.141211
O	      5.79789     14.53508     -2.72807        -0.192013     -1.428900     -0.084037
O	     14.24344     12.38002     -0.53873         0.004543     -0.134641      0.141211
O	     13.94588     16.57263     -4.75787        -0.192013     -1.428900     -0.084037
O	      6.22151      6.35804     -2.40529        -0.163724     -0.107543      0.086698
O	      5.78209     10.59182     -6.52674         0.071316     -0.039506      0.524555
O	     14.36949      8.39560     -4.43509        -0.163724     -0.107543      0.086698
O	     13.93008     12.62938     -8.55654         0.071316     -0.039506      0.524555
O	      6.21725      8.34906     -0.44983        -0.235763     -0.067127      0.085690
O	      5.95762     12.62649     -4.69028         0.017764     -0.211230      0.054340
O	     14.36523     10.38662     -2.47964        -0.235763     -0.067127      0.085690
O	     14.10560     14.66405     -6.72009         0.017764     -0.211230      0.054340
O	      4.06324      6.16223     -4.14931        -0.098480      0.116663     -0.120388
O	      3.89921     10.33727     -8.35550        -0.161716     -0.026180     -0.154164
O	     12.21122      8.19979     -6.17911        -0.098480      0.116663     -0.120388
O	     12.04720     12.37483    -10.38530        -0.161716     -0.026180     -0.154164
O	      4.09116      8.09637     -2.18219        -0.085697      0.127223     -0.134865
O	      3.88025     12.33166     -6.36916        -0.099738      0.151016     -0.247189
O	     12.23915     10.13393     -4.21199        -0.085697      0.127223     -0.134865
O	     12.02823     14.36922     -8.39896        -0.099738      0.151016     -0.247189
O	      4.06136     10.07778     -0.22850        -0.104024      0.126351     -0.109102
O	      3.85832     14.34674     -4.45206        -0.109925      0.038139     -0.114751
O	     12.20935     12.11534     -2.25830        -0.104024      0.126351     -0.109102
O	     12.00630     16.38429     -6.48186        -0.109925      0.038139     -0.114751
O	      5.91689      7.83197      3.95473        -0.024825      0.066792     -0.622257
O	      6.01366      6.23962     -6.23282        -0.025718      0.148375     -0.140423
O	     14.06487      9.86953      1.92493        -0.024825      0.066792     -0.622257
O	     14.16165      8.27718     -8.26262        -0.025718      0.148375     -0.140423
O	      6.13337      3.82001      0.10897        -0.033400      0.640375     -0.163141
O	      6.04958      8.19013     -4.23784        -0.036539      0.153098     -0.171726
O	     14.28136      5.85757     -1.92084        -0.033400      0.640375     -0.163141
O	     14.19756     10.22769     -6.26764        -0.036539      0.153098     -0.171726
O	      6.12595      5.85717      1.98973         0.033542      0.010297     -0.181368
O	      6.01212     10.17659     -2.28730         0.004491      0.145771     -0.138874
O	     14.27394      7.89473     -0.04007         0.033542      0.010297     -0.181368
O	     14.16010     12.21415     -4.31710         0.004491      0.145771     -0.138874
O	     16.21768      6.40830     -4.37555        -0.037081     -0.249478      0.206653
O	     15.99706     10.53623     -8.55213         0.015349     -0.117546      0.145717
O	      8.06969      4.37074     -2.34575        -0.037081     -0.249478      0.206653
O	      7.84908      8.49867     -6.52233         0.015349     -0.117546      0.145717
O	     16.13310      8.38860     -2.41978        -0.027089     -0.266448      0.190108
O	     16.04451     12.51602     -6.57866         0.001984     -0.097271      0.137156
O	      7.98512      6.35104     -0.38998        -0.027089     -0.266448      0.190108
O	      7.89653     10.47846     -4.54886         0.001984     -0.097271      0.137156
O	     16.12166     10.22448     -0.49291        -0.026171     -0.126514      0.244849
O	     16.03935     14.48525     -4.60730         0.041458     -0.154387      0.090482
O	      7.97368      8.18693      1.53689        -0.026171     -0.126514      0.244849
O	      7.89136     12.44770     -2.57749         0.041458     -0.154387      0.090482
O	      1.87688      4.28622     -0.33131         0.204107     -0.118636      0.098279
O	      1.90435      8.54076     -4.61575         0.098688     -0.105419      0.170600
O	     10.02486      6.32378     -2.36111         0.204107     -0.118636      0.098279
O	     10.05234     10.57832     -6.64555         0.098688     -0.105419      0.170600
O	      1.88876      6.25333      1.63556         0.242757     -0.086497      0.100566
O	      1.94345     10.51317     -2.62376         0.078554     -0.154319      0.130757
O	     10.03675      8.29089     -0.39424         0.242757     -0.086497      0.100566
O	     10.09143     12.55073     -4.65356         0.078554     -0.154319      0.130757
O	      2.03077      2.34402     -2.33856         0.090951     -0.129806      0.128254
O	      1.91303      6.58594     -6.57566         0.152583     -0.143941      0.093999
O	     10.17876      4.38158     -4.36836         0.090951     -0.129806      0.128254
O	     10.06101      8.62350     -8.60546         0.152583     -0.143941      0.093999
O	      0.09413      4.07942     -2.08625        -0.105702      0.093643     -0.167172
O	     16.08744     12.30839    -10.32532         0.009179     -0.081062     -0.038372
O	      8.24211      6.11698     -4.11605        -0.105702      0.093643     -0.167172
O	      7.93946     10.27083     -8.29552         0.009179     -0.081062     -0.038372
O	      0.07733      6.07282     -0.15671        -0.141582      0.141158     -0.159869
O	      0.00823     10.24821     -4.32508        -0.173652      0.100933     -0.147230
O	      8.22532      8.11038     -2.18651        -0.141582      0.141158     -0.159869
O	      8.15622     12.28577     -6.35488        -0.173652      0.100933     -0.147230
O	      0.09596      8.02605      1.85406        -0.129007      0.128325     -0.060694
O	      0.02193     12.22342     -2.35755        -0.152714      0.069762     -0.105615
O	      8.24394     10.06361     -0.17574        -0.129007      0.128325     -0.060694
O	      8.16992     14.26098     -4.38735        -0.152714      0.069762     -0.105615
O	      1.91812      4.07351     -4.07355        -0.107823      0.146713     -0.125833
O	      2.00983     14.25431     -2.44067        -0.183244      0.103685     -0.113905
O	     10.06611      6.11107     -6.10335        -0.107823      0.146713     -0.125833
O	     10.15781     16.29187     -4.47047        -0.183244      0.103685     -0.113905
O	      1.92178      6.05342     -2.08841        -0.114979      0.119901     -0.163131
O	      1.99783     10.33405     -6.36371        -0.189029      0.117239     -0.078304
O	     10.06976      8.09098     -4.11821        -0.114979      0.119901     -0.163131
O	     10.14581     12.37161     -8.39351        -0.189029      0.117239     -0.078304
O	      1.91961      8.01660     -0.13020        -0.142603      0.131116     -0.099213
O	      1.83892     12.24541     -4.36346        -0.119563      0.113589     -0.114402
O	     10.06759     10.05416     -2.16000        -0.142603      0.131116     -0.099213
O	      9.98690     14.28297     -6.39326        -0.119563      0.113589     -0.114402
