# total energy = -829.14165491 eV
 
CRYSTAL
PRIMVEC
-0.017140 5.921957 5.916326 
16.313343 4.012218 -4.056070 
-0.276729 8.613880 -8.604134 
PRIMCOORD
175 1
Li	      8.28521      8.10275      3.70006        -0.015848      0.012259     -0.011415
Li	      8.11614     12.41530     -0.60342        -0.022814      0.015230     -0.014586
Li	      1.12868      5.28739     -5.19627         0.052389      0.008021     -0.022875
Li	      8.29817      4.14735     -0.23668        -0.014116      0.010434     -0.014781
Li	      8.12885      8.47354     -4.56029        -0.025273      0.014908     -0.013087
Li	      0.40510      2.22229      1.53449        -0.033559      0.049487      0.004169
Li	      8.29581      6.12496      1.73288        -0.018271      0.009243     -0.012390
Li	      8.11511     10.45088     -2.58652        -0.024082      0.007548     -0.009604
Li	      0.28173      4.43987      3.90919        -0.024807      0.011667     -0.029029
Li	      3.80574      7.72525      4.01845        -0.001999     -0.007576     -0.008421
Li	     11.99455      3.85936     -3.86260         0.009867     -0.012578      0.007887
Li	     11.90260      8.23589     -8.26137         0.003515      0.000563     -0.010188
Li	      3.73918      3.74717      0.07618        -0.022275      0.003958     -0.003032
Li	     12.02257      5.83686     -1.91600         0.011022     -0.005948      0.009729
Li	     11.90924     10.21003     -6.30728         0.010554      0.002216      0.005353
Li	      3.78641      5.71870      2.07538        -0.005340      0.009359     -0.010270
Li	      3.39491      9.85655     -2.20586        -0.015282      0.011899     -0.000188
Li	     12.01556      7.82137      0.04493         0.011682     -0.006534      0.005258
Li	     11.89117     12.18320     -4.32880         0.008563      0.003370     -0.004254
Li	      6.04262      3.92863     -1.97144        -0.011803     -0.006785      0.016578
Li	      5.74760      8.10972     -6.17936         0.015086     -0.009369      0.013312
Li	     14.25043      5.96638     -4.05090        -0.001962     -0.016189      0.062018
Li	     14.33150     10.23099     -8.27550         0.021597     -0.011442      0.004755
Li	      6.05812      5.89117     -0.02053        -0.013408     -0.013199      0.009360
Li	      5.76491     10.10556     -4.24366        -0.015211     -0.007631      0.019677
Li	     14.22788      7.99310     -2.10005        -0.011675     -0.037942      0.033125
Li	     14.32556     12.18478     -6.30951         0.002591     -0.014953      0.016400
Li	      6.04696      7.86904      1.94112        -0.019227     -0.010354      0.014143
Li	      5.76305     12.12169     -2.23194        -0.012533     -0.015968      0.015685
Li	     14.18852     10.00228     -0.09100         0.006846     -0.061550      0.028670
Li	     14.32027     14.18870     -4.34368        -0.002401     -0.035397      0.034776
Ni	     -0.02566      2.15621     -2.15045         0.077266     -0.818948      0.438412
Ni	     16.07125     10.71230    -10.69220         0.054260     -0.179371      0.030579
Ni	      8.16135      9.96976      1.82942        -0.113766     -0.037044      0.048654
Ni	      7.95721     14.27795     -2.46639        -0.091740     -0.020686      0.026750
Ni	     -0.06584      4.20399     -0.24060         0.106085      0.014549      0.065287
Ni	     -0.20354      8.62087     -4.62644         0.051764     -0.089692      0.192668
Ni	      8.20163      6.01230     -2.10362        -0.133872     -0.027477      0.029516
Ni	      7.94606     10.33765     -6.41933        -0.061546     -0.038172      0.030398
Ni	     -0.06084      6.12665      1.76081         0.046804     -0.043423      0.011395
Ni	     -0.19287     10.55232     -2.59642        -0.039447     -0.011664      0.069894
Ni	      8.19679      7.98842     -0.13198        -0.123972     -0.039861      0.026981
Ni	      7.93294     12.31345     -4.44836        -0.035281     -0.044645      0.043578
Ni	      1.99354      4.16802     -2.18497        -0.066139      0.142740     -0.014827
Ni	      1.86686      8.55715     -6.53297         0.272801     -0.106339     -0.003740
Ni	     10.09778      6.15964     -4.22106         0.025856      0.009646      0.000502
Ni	      9.93598     10.44361     -8.48997         0.009825     -0.005098     -0.004744
Ni	      1.98645      6.15831     -0.22493         0.018329     -0.015677     -0.037638
Ni	      1.84258     10.54639     -4.56752         0.027428     -0.028037     -0.020178
Ni	     10.09330      8.13715     -2.24838         0.023623     -0.010379      0.002164
Ni	      9.93354     12.42017     -6.51925         0.041878     -0.000099     -0.008133
Ni	      2.00122      8.12336      1.74409        -0.023772      0.084621     -0.175059
Ni	      1.85009     12.51649     -2.59637         0.015828     -0.024033      0.027001
Ni	     10.08941     10.11244     -0.28018         0.022059     -0.002009      0.002678
Ni	      9.92593     14.39403     -4.55014         0.025074      0.010367      0.007835
Ni	      3.95810     10.11997      1.69317         0.001282     -0.054949     -0.014452
Ni	      3.85682      8.58243     -8.58038        -0.061114     -0.025912     -0.192904
Ni	     12.02283      6.29575     -6.32338         0.014419      0.001541      0.002785
Ni	     11.85971     10.55165    -10.56373         0.133457      0.014972     -0.006831
Ni	      3.95056      6.13200     -2.20802         0.001659      0.041577      0.070878
Ni	      3.86211     10.54949     -6.61432        -0.070160      0.156965      0.044120
Ni	     11.97550      8.26448     -4.34964         0.138165      0.010383      0.007126
Ni	     11.86059     12.52848     -8.58669         0.142272      0.006305     -0.009687
Ni	      3.97579      8.10583     -0.26032        -0.028135     -0.074760      0.036789
Ni	      3.81801     12.51391     -4.61488         0.025099      0.004449     -0.028292
Ni	     12.00878     10.24394     -2.38517         0.075949      0.001164     -0.018257
Ni	     11.87771     14.50657     -6.62811         0.096905     -0.000075     -0.002030
Ni	      5.97463      6.21612     -4.27921         0.088690      0.014835     -0.019884
Ni	      5.87777     10.58860     -8.65574         0.135538      0.029064     -0.043775
Ni	     14.15321      8.35583     -6.42429         0.172005      0.128505      0.027214
Ni	     14.00035     12.69709    -10.71893        -0.030823      0.082296     -0.075985
Ni	      5.98389      8.16814     -2.30110         0.102547      0.030343     -0.001123
Ni	      5.88583     12.56699     -6.67661         0.110689      0.054404     -0.048231
Ni	     14.14576     10.35116     -4.45256         0.141629     -0.000944     -0.060966
Ni	     13.96676     14.67733     -8.74876         0.120158      0.039972     -0.083738
Ni	      5.95379     10.16259     -0.34891         0.118705      0.011936     -0.027796
Ni	      5.87633     14.52982     -4.70797         0.123024      0.052736     -0.042066
Ni	     14.09827     12.32248     -2.48560         0.184910      0.023121     -0.115685
Ni	     13.92982     16.65883     -6.79318         0.133083      0.067506     -0.057106
O	      3.89291      4.25993     -2.13407         0.148686     -0.154458      0.084291
O	      3.93571      8.69925     -6.73299        -0.148451     -0.192433      0.159207
O	     11.96903      6.36336     -4.41524         0.093640     -0.122215      0.111604
O	     11.81763     10.61315     -8.65007         0.093619     -0.101862      0.110836
O	      3.90817      6.19758     -0.29458         0.169006     -0.083428      0.110597
O	      3.74568     10.64927     -4.56617         0.151339     -0.127992      0.093086
O	     11.96504      8.33557     -2.44540         0.090872     -0.111224      0.110190
O	     11.81905     12.59674     -6.68359         0.097592     -0.126064      0.113344
O	      3.92959      8.20683      1.63132         0.137904     -0.125961      0.104510
O	      3.75676     12.62705     -2.67369         0.192413     -0.078355      0.110952
O	     11.96008     10.31194     -0.47843         0.097152     -0.117212      0.116354
O	     11.80719     14.56772     -4.71944         0.096057     -0.116365      0.120829
O	      5.90861     10.22973      1.55405         0.114002     -0.099655      0.116086
O	      5.76021     14.58889     -2.80674         0.080989     -0.097376      0.122601
O	     14.19564     12.39242     -0.59039         0.145357     -0.190973      0.182177
O	     14.18666     10.79174    -10.81122        -0.082487     -0.135743      0.122151
O	      5.86604      6.24150     -2.33867         0.130260     -0.106564      0.096672
O	      5.84412     10.67356     -6.75884         0.043324     -0.119317      0.113726
O	     14.38607      8.42507     -4.50011        -0.201578     -0.072869      0.081302
O	     14.19871     12.76691     -8.79732        -0.077320     -0.110700      0.137458
O	      5.87267      8.21258     -0.37580         0.113595     -0.099277      0.107485
O	      5.88252     12.63672     -4.78026         0.027887     -0.105007      0.102880
O	     14.20363     10.43090     -2.57411        -0.066406     -0.096429      0.126044
O	     14.08257     14.77993     -6.87341        -0.018841     -0.146350      0.158787
O	      3.95682      6.03030     -4.04072        -0.083314      0.181503     -0.167921
O	      3.88335     10.44513     -8.61950        -0.120770      0.133948     -0.152211
O	     12.14021      8.17946     -6.21002        -0.093676      0.128066     -0.158905
O	     12.00304     12.43082    -10.45748        -0.133282      0.123138     -0.133574
O	      3.97232      7.98871     -2.10260        -0.095592      0.148863     -0.121330
O	      3.86843     12.42247     -6.56251        -0.068258      0.135504     -0.126054
O	     12.13487     10.12685     -4.27123        -0.085405      0.154905     -0.140422
O	     11.97535     14.41687     -8.51673        -0.105001      0.106422     -0.130197
O	      3.96355      9.92536     -0.32285        -0.114255      0.157195     -0.120601
O	      3.85361     14.38676     -4.56609        -0.083779      0.164961     -0.075340
O	     12.08394     12.12443     -2.28883        -0.097597      0.145645     -0.132783
O	     11.95183     16.39381     -6.53663        -0.104040      0.140568     -0.106287
O	      6.22088      7.80699      3.98002         0.021258      0.134001     -0.143635
O	      6.15211     12.03340     -0.23027         0.025365      0.182797     -0.170563
O	     14.00488      3.99499     -3.99863        -0.043249      0.148214     -0.174612
O	     13.97124      8.28235     -8.30234        -0.021752      0.123877     -0.136692
O	      6.25572      3.85816      0.04136         0.018244      0.150948     -0.142255
O	      6.15946      8.07671     -4.16027         0.030092      0.163713     -0.183714
O	     14.08619      5.96708     -2.02470        -0.037449      0.168312     -0.127257
O	     13.99825     10.23560     -6.33057        -0.019183      0.118810     -0.133950
O	      6.20900      5.83975      2.01391         0.035951      0.148256     -0.156170
O	      6.10214     10.04912     -2.21764         0.035426      0.161569     -0.161846
O	     14.11597      7.95888     -0.07907        -0.056293      0.109320     -0.144405
O	     13.95154     12.23507     -4.36939        -0.023288      0.134819     -0.118484
O	     16.10358      6.38833     -4.35463        -0.123685      0.035409      0.806946
O	     16.05087     10.78756     -8.86359        -0.022511     -0.145069      0.171835
O	      7.98654      4.16171     -2.22677        -0.005090     -0.168451      0.155343
O	      7.73975      8.46917     -6.52725        -0.031190     -0.159357      0.175536
O	     16.11436      8.25760     -2.44217        -0.025894     -0.092054      0.160232
O	     16.03504     12.74288     -6.84025        -0.055912     -0.224357      0.128999
O	      7.99662      6.13245     -0.24844        -0.011337     -0.159519      0.160732
O	      7.73494     10.44242     -4.55733        -0.015948     -0.152233      0.161415
O	     16.05812     10.23775     -0.45952        -0.161356     -0.696714      0.093992
O	     16.04975     14.79580     -4.75340        -0.058110     -0.132150      0.171031
O	      7.98142      8.10812      1.71797        -0.010163     -0.154070      0.162483
O	      7.73298     12.42086     -2.57750        -0.018302     -0.172268      0.145255
O	      1.85400      4.27483     -0.31217         0.116853     -0.157745      0.133328
O	      1.66832      8.67920     -4.66591        -0.062669     -0.001799      0.944735
O	     10.21070      6.27728     -2.36163         0.121885     -0.115472      0.107280
O	     10.01739     10.55920     -6.63222         0.098246     -0.130685      0.124952
O	      2.00762      6.28034      1.62213         0.086687     -0.145746      0.158758
O	      1.79893     10.67303     -2.72073         0.110505     -0.132166      0.120059
O	     10.20516      8.25461     -0.39371         0.123276     -0.112042      0.116260
O	     10.01202     12.53675     -4.66284         0.093437     -0.126891      0.135142
O	      2.02825      2.31973     -2.32167        -0.206029     -0.205869      0.189725
O	      1.64384      6.68815     -6.63952        -0.113399     -0.910347      0.080881
O	     10.18779     10.22692      1.58004         0.114007     -0.115416      0.111551
O	     10.02212      8.58567     -8.60502         0.112172     -0.121301      0.118408
O	      0.11876      4.07439     -2.11188        -0.007082      0.978540     -0.147905
O	     -0.21242      8.58581     -6.51796         0.302625      0.147364     -0.159193
O	      8.23767      5.95012     -4.00652        -0.093574      0.111078     -0.110548
O	      8.06940     10.26550     -8.32731        -0.093871      0.110690     -0.099702
O	      0.11684      6.08121     -0.13890        -0.251617      0.084877     -0.128192
O	     -0.05789     10.49540     -4.56168        -0.119988      0.117741     -0.116075
O	      8.22873      7.91697     -2.03428        -0.093228      0.108822     -0.109986
O	      8.07517     12.25082     -6.35807        -0.117989      0.109866     -0.102235
O	      0.14100      8.02106      1.86825         0.006741      0.170290     -1.005321
O	     -0.05550     12.46566     -2.59479        -0.181513      0.136372     -0.117860
O	      8.22669      9.89210     -0.07423        -0.100694      0.111242     -0.110585
O	      8.06272     14.22675     -4.37684        -0.098362      0.105040     -0.111307
O	      2.07633      4.07127     -4.03830        -0.137639      0.106031     -0.127578
O	      2.01766      8.46066     -8.42175         0.062797      0.079398     -0.900574
O	      9.96377     11.96587     -0.15812        -0.122865      0.122088     -0.119717
O	      9.85030     10.33231    -10.34928        -0.134654      0.116133     -0.110050
O	      2.09482      6.02914     -2.08900        -0.151493      0.083737     -0.153891
O	      1.93737     10.42650     -6.42739        -0.026938      1.038383     -0.099881
O	      9.97116      8.01628     -4.10344        -0.137188      0.108367     -0.115736
O	      9.84718     12.30094     -8.37957        -0.134615      0.118486     -0.119000
O	      2.11525      8.01094     -0.13123        -0.088558      0.200033     -0.079688
O	      1.84026     12.40450     -4.44420        -0.132091      0.133622     -0.179583
O	      9.96818      9.99031     -2.13541        -0.128008      0.115740     -0.113499
O	      9.84302     14.27801     -6.40661        -0.125555      0.123401     -0.117581
