# total energy = -829.98142079 eV
 
CRYSTAL
PRIMVEC
0.006015 5.916465 5.915558 
16.350449 4.048634 -4.031370 
-0.202327 8.469958 -8.468806 
PRIMCOORD
175 1
Li	      8.33451      8.13143      3.70247        -0.019787      0.014745     -0.012397
Li	      8.27285      6.56055     -6.38441        -0.023735      0.013936     -0.021284
Li	      0.17598      6.16417      5.65722        -0.020632      0.010915     -0.005100
Li	      0.15577     10.39020      1.41058        -0.033500      0.012648     -0.016597
Li	      8.30603      4.17217     -0.21986        -0.006333      0.010583     -0.007406
Li	      0.17722      2.21195      1.70798        -0.020077      0.008411     -0.005479
Li	      8.30405      6.13894      1.76060        -0.007605      0.008092     -0.003977
Li	      8.27752     10.23578     -2.61683        -0.026602      0.032431     -0.014904
Li	      0.20008      4.21811      3.67275        -0.013314      0.001930     -0.003762
Li	      3.88617      1.90414     -1.89642         0.004330     -0.002598     -0.002015
Li	      3.73581     12.03005     -0.19886         0.035321     -0.004855     -0.012279
Li	     12.06430      9.84737      1.94747        -0.001310      0.002967      0.012916
Li	     11.91051      8.15817     -8.10668        -0.015144      0.003395      0.008888
Li	      3.79882      3.86130      0.09375         0.005846      0.006839      0.005265
Li	     12.07360      5.93582     -1.94850        -0.003965     -0.003933     -0.006074
Li	     11.97947     10.14522     -6.16490        -0.013751     -0.002626     -0.003983
Li	      3.79589      5.84349      2.06355         0.013690      0.004894     -0.001567
Li	     12.11656      7.87633      0.04444        -0.001078      0.003937     -0.007014
Li	     11.94079     12.09783     -4.11512        -0.012187      0.004873      0.003683
Li	      6.06359      3.97395     -1.97883        -0.005903     -0.022783      0.030419
Li	      5.95601      8.21468     -6.13383         0.005144     -0.023942      0.021425
Li	     14.24310      6.00206     -4.03630         0.003957     -0.021674      0.019716
Li	     14.25795     10.25652     -8.19147        -0.010129     -0.006674      0.014243
Li	      6.05949      5.95002     -0.01837        -0.009835     -0.020070      0.025387
Li	      5.87952     10.09426     -4.20342        -0.001420     -0.014130      0.008576
Li	     14.23432      7.96785     -2.04923        -0.009570     -0.023580      0.019623
Li	     14.55716     12.03145     -6.09362        -0.004524     -0.013370      0.018970
Li	      6.07425      7.90526      1.94570        -0.001183     -0.026927      0.015169
Li	      5.94248     12.09534     -2.31135         0.005499     -0.011200      0.003323
Li	     14.24210      9.97186     -0.08575        -0.010206     -0.017893      0.024532
Li	     14.24248     14.12742     -4.32439        -0.012123     -0.010757      0.012932
Ni	      0.02182      8.02201      3.80637        -0.041009     -0.057815      0.071837
Ni	     -0.09998      6.38249     -6.38136        -0.025328     -0.041317      0.042001
Ni	      8.14604     10.00008      1.83949        -0.055649     -0.039434      0.053472
Ni	      8.03842     14.26468     -2.43356        -0.025345     -0.054675      0.014181
Ni	     -0.01475      4.07796     -0.13509        -0.085129     -0.024816      0.045731
Ni	     -0.06701      8.35201     -4.41424        -0.059753     -0.079337      0.016798
Ni	      8.19561      6.05640     -2.09872        -0.144955     -0.020548      0.019222
Ni	      8.05960     10.29255     -6.33839        -0.036349     -0.049672      0.048601
Ni	     16.30075     10.10898     -2.20919        -0.028825     -0.059510      0.032678
Ni	     -0.06668     10.33345     -2.43425        -0.064846     -0.009266      0.086175
Ni	      8.24710      8.00624     -0.11731        -0.140465     -0.054674      0.035986
Ni	      8.03728     12.29394     -4.38591        -0.020534     -0.004122      0.055304
Ni	      2.00599      4.17100     -2.18626         0.029927      0.036796     -0.015562
Ni	      1.88799      8.39812     -6.42209         0.056962      0.006771      0.014182
Ni	     10.15968      6.15520     -4.16577        -0.052496      0.037474     -0.004700
Ni	     10.04466     10.39813     -8.41067         0.010912     -0.004628     -0.006420
Ni	      1.97023      6.18585     -0.26823        -0.098891      0.005382     -0.032447
Ni	      1.89599     10.34799     -4.42804         0.062744     -0.035594      0.034658
Ni	     10.21872      8.09026     -2.18060        -0.017572     -0.000180     -0.034797
Ni	     10.04329     12.36512     -6.43944         0.002648      0.006023      0.004517
Ni	      2.00996      8.09884      1.75325         0.026785      0.013407     -0.036300
Ni	      1.89331     12.34102     -2.47625         0.061137     -0.016605     -0.011128
Ni	     10.17929     10.07428     -0.18483        -0.023204      0.026481     -0.017416
Ni	     10.04921     14.34165     -4.46914         0.016697     -0.006575      0.007826
Ni	      3.99238     10.09635      1.72967         0.042241      0.006910      0.027232
Ni	      3.82986      8.48203     -8.47450         0.075977      0.025942     -0.032216
Ni	     12.12831      6.23479     -6.18760         0.041392      0.000531     -0.000889
Ni	     12.02199     10.47199    -10.45614         0.044168      0.005258     -0.011050
Ni	      3.99425      6.19609     -2.23359         0.038149     -0.071942     -0.077417
Ni	      3.83474     10.45107     -6.49938         0.060907      0.020511     -0.013190
Ni	     12.18095      8.15767     -4.22437         0.056120      0.077278     -0.010647
Ni	     11.99839     12.44027     -8.47697         0.110195     -0.003216      0.000703
Ni	      3.98454      8.15392     -0.26353         0.054073      0.016201      0.031766
Ni	      3.83715     12.42088     -4.52654         0.069765      0.013389     -0.017560
Ni	     12.13180     10.18019     -2.22259         0.008470      0.001001     -0.005133
Ni	     12.00100     14.40132     -6.50802         0.113841     -0.002425      0.000005
Ni	      6.05885      6.20506     -4.22205         0.096799      0.048585     -0.094576
Ni	      5.93765     10.49585     -8.51172         0.150258      0.028730     -0.045637
Ni	     14.22391      8.28824     -6.29884         0.119371      0.042485     -0.031064
Ni	     14.15578     12.51216    -10.52595         0.101266      0.069685     -0.024396
Ni	      5.98599      8.21427     -2.30120         0.152713      0.026803      0.005972
Ni	      5.93999     12.46001     -6.53752         0.144251      0.044029     -0.037290
Ni	     14.17923     10.20177     -4.27329         0.185548      0.097812     -0.083311
Ni	     14.19317     14.46379     -8.53229         0.099036      0.014841     -0.015324
Ni	      6.04789     10.17859     -0.32503         0.107452      0.047085     -0.031824
Ni	      5.93704     14.44360     -4.57549         0.154312      0.042525     -0.027254
Ni	     14.20082     12.24245     -2.35529         0.134803      0.067838     -0.038497
Ni	     14.15847     16.45965     -6.58477         0.104531      0.022239     -0.065065
O	      3.92034      4.27680     -2.28429         0.130495     -0.105510      0.132036
O	      3.77110      8.53874     -6.58253         0.124403     -0.126929      0.131789
O	     12.23963      6.30168     -4.30310         0.086707     -0.212908      0.143888
O	     11.94834     10.52781     -8.54376         0.108593     -0.125001      0.116166
O	      4.05618      6.28386     -0.37652         0.074946     -0.144000      0.194726
O	      3.77347     10.53252     -4.61165         0.156188     -0.119924      0.124021
O	     12.11651      8.12114     -2.33593         0.095790     -0.066623      0.167900
O	     11.92590     12.50376     -6.57958         0.081660     -0.142873      0.141207
O	      3.92125      8.16117      1.64846         0.114206     -0.136805      0.125128
O	      3.77939     12.49959     -2.61442         0.122678     -0.126227      0.133413
O	     12.07154     10.22023     -0.19958         0.111851     -0.146860      0.069063
O	     11.95228     14.47262     -4.59922         0.116469     -0.123834      0.123890
O	      6.06244     10.22548      1.59591        -0.007407     -0.194324      0.146196
O	      5.98029     14.51493     -2.67982        -0.030214     -0.108855      0.109897
O	     14.30260      6.41294     -6.39736         0.012934     -0.138388      0.132743
O	     14.19626     16.54892     -4.70326        -0.012710     -0.151516      0.146139
O	      5.91164      6.27776     -2.33563         0.149040     -0.129416      0.176204
O	      5.96266     10.56095     -6.61384         0.004140     -0.128083      0.139914
O	     14.11469      8.30883     -4.33804         0.152585     -0.171209      0.105610
O	     14.35911     12.54905     -8.58674        -0.148100     -0.115304      0.095659
O	      5.91482      8.27461     -0.38609         0.126467     -0.137192      0.122860
O	      5.97328     12.54459     -4.63435        -0.032254     -0.127846      0.114030
O	     14.20609     10.31575     -2.38687         0.030386     -0.131167      0.192705
O	     14.35749     14.52529     -6.61908        -0.146980     -0.100212      0.108848
O	      4.15227      6.08635     -4.12387        -0.186745      0.131421     -0.161625
O	      3.92636     10.37086     -8.38695        -0.133251      0.149613     -0.137807
O	     12.21319      8.12269     -6.09664        -0.086717      0.150052     -0.174761
O	     12.16512     12.37128    -10.35151        -0.089663      0.138699     -0.152814
O	      3.99080      8.02609     -2.09927        -0.093927      0.217710     -0.174639
O	      3.93100     12.34810     -6.41771        -0.139335      0.141628     -0.153979
O	     12.29827     10.05307     -4.21650        -0.232674      0.129288     -0.052807
O	     12.20111     14.31229     -8.38246        -0.076490      0.146350     -0.142042
O	      4.03363     10.01911     -0.10982        -0.111322      0.151015     -0.184691
O	      3.93270     14.30943     -4.44638        -0.145459      0.137330     -0.149402
O	     12.20963     12.17576     -2.13591        -0.090921      0.092925     -0.173253
O	     12.16700     16.27645     -6.43382        -0.092336      0.152356     -0.137778
O	      6.14579      1.94829     -1.93706        -0.005637      0.159919     -0.146667
O	      6.07268      6.14210     -6.10526         0.008268      0.151771     -0.145595
O	     14.33421      9.88418      1.95753         0.007985      0.173791     -0.168487
O	     14.29920      8.23564     -8.19767         0.007940      0.146042     -0.163876
O	      6.16958      3.90783      0.04722        -0.001692      0.148882     -0.162084
O	      6.07562      8.06231     -4.13662         0.015563      0.185811     -0.186208
O	     14.37754      5.91753     -1.94712        -0.001233      0.159772     -0.167458
O	     14.09821     10.14265     -6.15173        -0.023929      0.180591     -0.172447
O	      6.17698      5.87743      2.01080         0.003672      0.151477     -0.153822
O	      6.21869     10.07330     -2.19353         0.028329      0.162499     -0.165605
O	     14.34967      7.88664      0.00064        -0.011704      0.161395     -0.141671
O	     14.03812     12.07393     -4.21282        -0.004191      0.195570     -0.165100
O	     16.18599      6.25465     -4.26734        -0.011077     -0.170179      0.141742
O	     16.13566     10.55747     -8.56924        -0.030432     -0.236284      0.183773
O	      7.97692      4.20563     -2.20291        -0.013449     -0.176378      0.137357
O	      7.85778      8.44765     -6.51870        -0.030807     -0.165761      0.211950
O	     16.15042      8.22377     -2.30808         0.001236     -0.149289      0.184511
O	     -0.08321      8.51646     -2.59597        -0.035510     -0.262282      0.257106
O	      8.00067      6.16002     -0.23603        -0.002343     -0.159751      0.170193
O	      7.83548     10.46289     -4.49269        -0.016835     -0.214976      0.182414
O	     16.18977     10.19965     -0.33176        -0.008758     -0.158377      0.148584
O	     16.12785     14.50233     -4.62341        -0.032932     -0.181449      0.240366
O	      8.00452      8.12400      1.72914        -0.001665     -0.144741      0.183280
O	      7.87238     12.38871     -2.51415        -0.015977     -0.187867      0.183529
O	      1.98252      4.32124     -0.33738         0.092394     -0.152589      0.143191
O	      1.81286      8.46994     -4.54595         0.219560     -0.120653      0.115715
O	     10.19362      6.23678     -2.30723         0.103618     -0.127165      0.146946
O	     10.11341     10.51113     -6.55370         0.103484     -0.136157      0.131945
O	      1.97033      6.24932      1.60059         0.067513     -0.152657      0.169829
O	      1.81375     10.46409     -2.54942         0.226268     -0.111786      0.119845
O	     10.25842      8.20426     -0.32253         0.107673     -0.128456      0.139469
O	     10.09743     12.47844     -4.58194         0.132767     -0.127563      0.133778
O	      2.04228      2.30597     -2.29813         0.079135     -0.159966      0.147530
O	      1.93429      6.55263     -6.54646         0.088120     -0.156693      0.155871
O	     10.14708      4.28364     -4.24277         0.104990     -0.150449      0.111528
O	     10.08014      8.54327     -8.52747         0.147545     -0.139808      0.138142
O	      0.11880      4.01306     -2.04279        -0.145030      0.120224     -0.121744
O	      0.01057      8.29593     -6.31408        -0.121770      0.129540     -0.149987
O	      8.03978      5.99331     -4.01604         0.061721      0.108575     -0.111207
O	      8.17828     10.27347     -8.27120        -0.095650      0.139542     -0.109902
O	     16.16121     10.02520     -4.10107         0.120542      0.118927     -0.117084
O	      0.01866     10.24533     -4.32476        -0.114543      0.169127     -0.169082
O	      8.32532      7.95449     -2.01307        -0.078728      0.136828     -0.128544
O	      8.17529     12.21846     -6.30430        -0.076217      0.120275     -0.133774
O	      0.13019      7.98131      1.90216        -0.154467      0.121120     -0.124465
O	      0.01601     12.23451     -2.37867        -0.123346      0.146671     -0.131496
O	      8.29234      9.90866     -0.07112        -0.052420      0.121262     -0.105953
O	      8.18066     14.21744     -4.35121        -0.093611      0.112952     -0.129863
O	      1.99859      9.95402      1.88065        -0.109130      0.155700     -0.165883
O	      1.83299     14.19934     -2.36473        -0.155115      0.152454     -0.158961
O	     10.11360     11.92770     -0.09792        -0.128802      0.112069     -0.194930
O	      9.99233     10.28211    -10.26886        -0.113712      0.143079     -0.141325
O	      2.13597      6.04684     -2.14150        -0.209856      0.128493     -0.159950
O	      1.82461     10.25096     -6.28039        -0.132132      0.136447     -0.167282
O	     10.32292      8.04525     -4.05962        -0.234101      0.119348     -0.100395
O	      9.98832     12.25562     -8.29701        -0.128393      0.138712     -0.138783
O	      2.12796      8.04646     -0.12003        -0.177952      0.168110     -0.131216
O	      1.83197     12.20111     -4.32882        -0.142605      0.165107     -0.132926
O	     10.15809      9.94445     -2.04732        -0.111986      0.138292     -0.126117
O	      9.98930     14.22472     -6.32596        -0.126592      0.134270     -0.136103
