# total energy = -829.45933023 eV
 
CRYSTAL
PRIMVEC
-0.004423 5.906458 5.909532 
16.402522 4.028434 -4.042905 
-0.217747 8.486649 -8.490242 
PRIMCOORD
175 1
Li	      8.36895      2.21963     -2.22658        -0.022380      0.013400     -0.009873
Li	      8.29046      6.54945     -6.32451        -0.016892      0.007074     -0.010502
Li	      0.13811     10.41638      1.38780        -0.039855      0.046267     -0.042474
Li	      8.35552      4.17372     -0.23547        -0.021507      0.016455     -0.018067
Li	      0.17999      2.09083      1.64589        -0.010546      0.017781     -0.005389
Li	      8.35297      6.15011      1.73730        -0.023620      0.017276     -0.013951
Li	      8.32427     10.30596     -2.62614        -0.002076      0.015501     -0.001460
Li	      0.18976      4.26570      3.78151        -0.007586     -0.002722     -0.018586
Li	      3.88930      1.88614     -1.88976         0.003877      0.001176      0.003349
Li	     12.12060      9.79276      2.00128         0.004601     -0.001228     -0.000050
Li	     11.97972     14.04933     -2.26839         0.000638     -0.006107      0.008016
Li	      3.88340      3.86721      0.08316         0.003558      0.005542     -0.058310
Li	      3.74321      7.98122     -4.30167         0.048460     -0.055514      0.043669
Li	     12.11276      5.87115     -1.93916         0.004063      0.005552     -0.001477
Li	     11.97205     10.10548     -6.19383         0.015201     -0.009121      0.011890
Li	      3.85318      5.81345      2.04348         0.015115      0.057537     -0.001447
Li	      3.74866     10.18991     -2.08500         0.026826     -0.038235      0.045000
Li	     12.09379      7.83423      0.03802         0.000410      0.000107     -0.005164
Li	     11.97954     12.09852     -4.22285         0.014365     -0.016993     -0.001121
Li	      6.11555      3.99211     -2.02579        -0.011950     -0.015257      0.053504
Li	      6.00991      8.17325     -6.19380        -0.018081     -0.020056      0.031743
Li	     14.36360      5.94134     -4.04335        -0.025102     -0.025138      0.022716
Li	     14.30673     10.24796     -8.23299        -0.011369     -0.017528      0.016041
Li	      6.09668      5.96729     -0.05677        -0.016596     -0.026231      0.025402
Li	      6.02442     10.08889     -4.26355        -0.024599     -0.029534      0.029722
Li	     14.30487      7.97526     -2.08260        -0.024716     -0.029218      0.030040
Li	     14.39885     12.10142     -6.21944        -0.013219     -0.010456      0.008547
Li	      6.10534      7.93074      1.90442        -0.014934     -0.054639      0.015827
Li	      5.98166     12.15759     -2.24532        -0.016598     -0.033610      0.030549
Li	     14.35917      9.93879     -0.03247        -0.028186     -0.022297      0.020832
Li	     14.30482     14.12477     -4.36722        -0.011593     -0.014173      0.020230
Ni	      0.01580      2.08545     -2.08510        -0.039703     -0.037021      0.042226
Ni	     -0.12228     12.33896     -0.52710        -0.001286     -0.004160      0.013520
Ni	      8.23302      4.08868     -4.08518         0.035133     -0.058333      0.047039
Ni	      8.10728     14.23581     -2.44237        -0.139248     -0.006241     -0.014115
Ni	      0.02322      4.08107     -0.13039        -0.119799      0.031613      0.011079
Ni	     -0.07988      8.31857     -4.39673        -0.016210     -0.004336      0.013504
Ni	      8.25366      6.05389     -2.10508        -0.115949     -0.022232      0.029627
Ni	      8.09332     10.29068     -6.35992        -0.068864     -0.047438      0.038380
Ni	     -0.01532      6.05657      1.80444        -0.036884     -0.032594     -0.016952
Ni	     -0.07898     10.29908     -2.41242        -0.013429     -0.020299     -0.004737
Ni	      8.23784      8.00311     -0.13755        -0.108738     -0.031316      0.022910
Ni	      8.06146     12.29524     -4.41392        -0.043370     -0.004436      0.034388
Ni	      1.99919      4.15227     -2.18100         0.161348      0.066776      0.203059
Ni	      1.88327      8.41655     -6.45401         0.068810     -0.024483     -0.049066
Ni	     10.23766      6.14499     -4.17668         0.020335      0.049841      0.015917
Ni	     10.06729     10.39575     -8.43884         0.007362     -0.007893     -0.016829
Ni	      2.00181      6.13379     -0.22519         0.023144      0.040896     -0.055301
Ni	      1.88437     10.38359     -4.47917         0.046305     -0.007881      0.003308
Ni	     10.21706      8.12078     -2.22553        -0.045604     -0.000991     -0.012288
Ni	     10.06648     12.36695     -6.47398         0.016386      0.007767     -0.009629
Ni	      1.99529      8.09230      1.76042         0.186342     -0.175218     -0.058000
Ni	      1.88341     12.35418     -2.50986         0.071494      0.053142      0.019309
Ni	     10.20438     10.07297     -0.23873         0.027047     -0.016588     -0.012833
Ni	     10.06420     14.33554     -4.50448         0.015703      0.015912      0.011743
Ni	      3.93202      4.21990     -4.22342        -0.241456      0.516174     -0.598274
Ni	      3.85118      8.46053     -8.46716         0.060216      0.004365     -0.008496
Ni	     12.15645     12.12131     -0.32874         0.060995     -0.018947      0.013087
Ni	     12.00936     16.36803     -4.56619         0.122485      0.006905     -0.006487
Ni	      3.95334      6.16278     -2.22056        -0.037151     -0.023845      0.054794
Ni	      3.83732     10.45324     -6.51651         0.058433      0.011749     -0.008962
Ni	     12.21494      8.17828     -4.25536         0.088098     -0.008462     -0.036245
Ni	     12.04751     12.43574     -8.50658         0.069925      0.004718     -0.004491
Ni	      3.96013      8.13177     -0.24821        -0.029928     -0.072898      0.050206
Ni	      3.83696     12.41786     -4.54998         0.061155      0.013203     -0.012193
Ni	     12.17980     10.15219     -2.29714         0.068214      0.015050      0.009904
Ni	     12.04641     14.39987     -6.54193         0.066446      0.003821     -0.007553
Ni	      5.99862      6.23859     -4.27558         0.097196      0.168361      0.026180
Ni	      5.92336     10.48866     -8.52298         0.129067      0.022611     -0.066212
Ni	     14.23648      8.28191     -6.33673         0.151925      0.062306     -0.043357
Ni	     14.18375     12.51407    -10.56478         0.114737      0.036622     -0.012395
Ni	      6.00723      8.18174     -2.28686         0.099065      0.057454     -0.065541
Ni	      5.94694     12.46765     -6.56865         0.130236      0.065550     -0.078600
Ni	     14.23064     10.26008     -4.37555         0.150242      0.027220     -0.081891
Ni	     14.18041     14.48225     -8.58819         0.140226      0.020217     -0.033899
Ni	      6.03181     10.17683     -0.31504         0.109137     -0.006665     -0.168705
Ni	      5.91556     14.43342     -4.59365         0.121620      0.083108     -0.019361
Ni	     14.25983     12.22936     -2.40217         0.128827      0.090009     -0.060780
Ni	     14.17853     16.45747     -6.62383         0.116138      0.023996     -0.033899
O	      3.91168      4.27945     -2.30052         0.129570     -0.169086      0.977424
O	      3.78669      8.54883     -6.58614         0.145204     -0.099600      0.167254
O	     12.14566      6.28571     -4.31386         0.098736     -0.150169      0.110375
O	     11.95990     10.52067     -8.57312         0.091813     -0.105193      0.120710
O	      3.91555      6.23214     -0.31758         0.175930     -0.085685      0.083858
O	      3.78014     10.52218     -4.61629         0.119753     -0.112365      0.105376
O	     12.31289      8.26920     -2.38973         0.114533     -0.124595      0.147248
O	     11.95531     12.50303     -6.60660         0.097692     -0.118242      0.119895
O	      3.91326      8.21012      1.63740         0.140225     -1.016600      0.174647
O	      3.78975     12.48388     -2.64364         0.144242     -0.158281      0.098942
O	     12.11091     10.21181     -0.37810         0.088972     -0.117358      0.124377
O	     11.95860     14.46380     -4.62557         0.089627     -0.120999      0.105123
O	      6.09467      4.35082     -4.33843        -0.241842     -0.181173      0.190849
O	      5.78795     14.45848     -2.65518         0.234094     -0.078312      0.076384
O	     14.32796     12.29651     -0.50134        -0.002959     -0.144278      0.123836
O	     14.37741     16.50734     -4.71059        -0.155625     -0.101290      0.096995
O	      5.86223      6.26375     -2.32631         0.136219     -0.114048      0.093089
O	      5.96875     10.56706     -6.63743         0.035474     -0.113999      0.127004
O	     14.17198      8.32790     -4.42121         0.165960     -0.107019      0.105146
O	     14.25685     12.57372     -8.65676        -0.037024     -0.102045      0.085785
O	      5.87192      8.22857     -0.33791         0.147828     -0.088341      0.107182
O	      5.97106     12.55277     -4.67432         0.025900     -0.135659      0.123911
O	     14.35359     10.33785     -2.48372        -0.035675     -0.135600      0.143540
O	     14.25222     14.55340     -6.68474        -0.035196     -0.093083      0.115825
O	      3.98571      6.07235     -4.06196        -0.053333      0.843219      0.088992
O	      3.90189     10.33640     -8.39954        -0.081561      0.184509     -0.135942
O	     12.22116      8.08745     -6.14331        -0.091237      0.151694     -0.149043
O	     12.18811     12.33441    -10.38240        -0.092091      0.132164     -0.132783
O	      3.96076      8.03010     -2.10590        -0.093384      0.134653     -0.147801
O	      3.93060     12.34433     -6.44175        -0.103806      0.138617     -0.138648
O	     12.22662     10.04183     -4.17680        -0.097204      0.183711     -0.173464
O	     12.17854     14.32531     -8.43366        -0.122218      0.121144     -0.119061
O	      4.00962      9.97181     -0.18138        -0.052641     -0.040701     -0.749397
O	      3.89653     14.30037     -4.43583        -0.078352      0.132299     -0.187285
O	     12.24651     12.04271     -2.21388        -0.092173      0.139256     -0.153614
O	     12.18076     16.27517     -6.43926        -0.091287      0.128049     -0.133509
O	      6.13629      1.92687     -1.92071         0.014757      0.131268     -0.134665
O	      6.24007      6.13667     -6.12876         0.037518      0.160757     -0.179031
O	     14.20554      3.93894     -3.94875        -0.026196      0.147239     -0.156493
O	     14.24718      8.20849     -8.22108        -0.005743      0.146925     -0.153078
O	      6.16176      3.88942      0.03040         0.031385      0.135714     -0.116125
O	      5.81831      8.10612     -4.18321         0.045091      0.154523     -0.143120
O	     14.37375      5.90845     -1.98765        -0.016315      0.157222     -0.144074
O	     14.06190     10.15611     -6.24723        -0.013114      0.144267     -0.157316
O	      6.16529      5.87493      2.00831         0.031675      0.117411     -0.128574
O	      6.00024     10.07063     -2.20307         0.055108      0.137248     -0.123699
O	     14.36390      7.88637     -0.01530        -0.016121      0.149354     -0.150313
O	     14.07521     12.13635     -4.28010        -0.013984      0.164674     -0.148532
O	     16.22792      6.28616     -4.27740        -0.040069     -0.202186      0.157530
O	     16.17591     10.49411     -8.65402        -0.031996     -0.232840      0.165959
O	      8.04210      4.19329     -2.21699        -0.005274     -0.167470      0.133105
O	      7.89484      8.44119     -6.53360        -0.029838     -0.152518      0.202939
O	     16.21819      8.20669     -2.31649        -0.018019     -0.165821      0.170420
O	     16.19560     12.49797     -6.61097        -0.034359     -0.198871      0.209909
O	      8.01243      6.14790     -0.24949         0.000529     -0.156134      0.156826
O	      7.89251     10.46358     -4.50843        -0.017855     -0.180907      0.148525
O	     16.22097     10.17555     -0.40829        -0.032925     -0.157715      0.208404
O	     16.17435     14.54268     -4.60205        -0.033768     -0.173458      0.227107
O	      8.03311      8.12535      1.72597        -0.003080     -0.135328      0.159497
O	      7.89223     12.38239     -2.53260        -0.009052     -0.176414      0.127150
O	      2.05430      4.28465     -0.32756         0.041974     -0.154125      0.091385
O	      1.93625      8.52724     -4.60962         0.100008     -0.115921      0.158204
O	     10.27088      6.25814     -2.32176         0.112225     -0.161204      0.103565
O	     10.13521     10.51143     -6.58652         0.104747     -0.123096      0.124160
O	      2.02197      6.23407      1.62806         0.054860     -0.108306      0.173257
O	      1.94185     10.51130     -2.62267         0.090065     -0.162062      0.115028
O	     10.24924      8.21637     -0.34935         0.109961     -0.101820      0.164253
O	     10.12591     12.48178     -4.61772         0.083461     -0.126544      0.127081
O	      2.06067      2.30240     -2.29796         0.059682     -0.161249      0.164519
O	      1.77829      6.53923     -6.54255         0.161026     -0.119205      0.119833
O	     10.27630      4.28961     -4.28466         0.096617     -0.140693      0.128467
O	     10.12846     14.44504     -2.64614         0.106363     -0.115475      0.114332
O	      0.13813      3.99893     -2.03609        -0.182496      0.101534     -0.130420
O	      0.01436      8.31784     -6.32361        -0.198445      0.123048     -0.117512
O	      8.36242      5.99379     -4.01308        -0.127251      0.108906     -0.112379
O	      8.18826     10.24613     -8.29254        -0.088952      0.115819     -0.091658
O	      0.13475      5.97848     -0.08583        -0.178954      0.105273     -0.098099
O	      0.02179     10.24124     -4.33617        -0.132534      0.102114     -0.100365
O	      8.11831      7.93784     -2.01455        -0.038076      0.108078     -0.122709
O	      8.19596     12.21975     -6.34289        -0.095623      0.106374     -0.096601
O	      0.14104      7.97051      1.90647        -0.212451      0.115472     -0.103395
O	      0.01605     12.22542     -2.41101        -0.203402      0.111531     -0.123956
O	      8.33051      9.91199     -0.09078        -0.111246      0.102533     -0.093606
O	      8.18604     14.21020     -4.36347        -0.100456      0.100289     -0.114165
O	      1.94469      4.02787     -4.02589         0.218474      0.208484     -0.197398
O	      1.97428     14.22610     -2.41619        -0.255636      0.093572     -0.094527
O	     10.15284      6.02172     -6.02747        -0.127802      0.119152     -0.126858
O	     10.00771     10.28668    -10.29763        -0.139268      0.110389     -0.112314
O	      2.08877      6.02711     -2.09200        -0.141099      0.090295     -0.119888
O	      1.83091     10.26536     -6.33331        -0.136547      0.169125     -0.135590
O	     10.35637      8.02142     -4.11109        -0.252626      0.063349     -0.104517
O	     10.01355     12.25021     -8.33193        -0.126279      0.122459     -0.119116
O	      2.08929      8.00369     -0.11428        -0.141726      0.113296     -0.100161
O	      1.83199     12.23669     -4.35870        -0.133544      0.138339     -0.170943
O	     10.17396      9.97688     -2.09370        -0.129649      0.174473     -0.094213
O	     10.00966     14.22538     -6.35884        -0.119807      0.120542     -0.121557
