# total energy = -830.17992962 eV
 
CRYSTAL
PRIMVEC
-0.001563 5.920095 5.924139 
16.370799 4.017853 -4.025000 
-0.225732 8.473695 -8.478833 
PRIMCOORD
175 1
Li	      8.32282      8.12238      3.70700        -0.015230     -0.001867      0.000235
Li	      8.24921      6.56198     -6.30828        -0.023325      0.022045     -0.027761
Li	      0.18704      0.26157     -0.25718        -0.010253      0.008881     -0.008170
Li	      0.15659     10.42354      1.41697        -0.008679      0.030623     -0.022326
Li	      8.31079      4.16156     -0.22216        -0.011299     -0.001275     -0.001006
Li	      0.16987      2.21353      1.73942        -0.015099      0.010924     -0.014231
Li	      8.31350      6.13175      1.76175        -0.017367      0.001578     -0.003439
Li	      8.27515     10.26402     -2.60556        -0.023382      0.021171     -0.023670
Li	      0.17571      4.21526      3.68765        -0.004091      0.000145     -0.001405
Li	      3.89690      7.81652      4.02193         0.006981     -0.004403      0.005928
Li	     12.12568      9.83113      1.96494         0.014831     -0.009413      0.020898
Li	     11.91604      8.14758     -8.12632        -0.024627      0.008105      0.008833
Li	      3.86001      3.88436      0.06383         0.012959     -0.002463      0.005139
Li	     12.13165      5.91922     -1.93495         0.002069     -0.015838      0.011106
Li	     11.94096     10.10387     -6.13758         0.008838      0.003230     -0.018964
Li	      3.84060      5.83148      2.04269         0.018774     -0.004718      0.001312
Li	      3.68146     10.03594     -2.14186        -0.001281     -0.024136      0.006972
Li	     12.13861      7.85515      0.05495         0.001530     -0.010557      0.006466
Li	     11.93111     12.07847     -4.12425        -0.005640     -0.013099     -0.001646
Li	      6.06671      3.99621     -2.00898        -0.002011     -0.023747      0.027935
Li	      5.84497      8.12810     -6.14102         0.004137     -0.012242      0.015862
Li	     14.28467      6.01212     -4.04419        -0.014616     -0.034411      0.033044
Li	     14.29780     10.22968     -8.16075        -0.018806     -0.016012      0.007972
Li	      6.06377      5.96397     -0.04396        -0.015534     -0.030309      0.028805
Li	      5.94413     10.06972     -4.26300        -0.001757     -0.021407      0.017791
Li	     14.23972      7.97481     -2.07095        -0.003539     -0.024478      0.030929
Li	     14.45891     12.04293     -6.11672        -0.014243     -0.018788      0.008606
Li	      6.07079      7.93096      1.92898        -0.006092     -0.023904      0.026076
Li	      5.92865     12.12675     -2.22794         0.007168     -0.013499      0.017827
Li	     14.24689      9.96933     -0.09975         0.002227     -0.029285      0.018495
Li	     14.25174     14.11598     -4.28256        -0.024526     -0.014172      0.012400
Ni	      0.00969      2.10582     -2.10011        -0.045132     -0.059379      0.059891
Ni	     -0.13329     12.34200     -0.50205        -0.019142     -0.012388      0.008479
Ni	      8.18352      9.98213      1.84722        -0.071026     -0.043644      0.047816
Ni	      8.01262     14.25689     -2.42854        -0.034953     -0.042255      0.012929
Ni	      0.00655      4.06897     -0.11236        -0.111325     -0.020413      0.015700
Ni	     -0.10032      8.37099     -4.43521        -0.046130     -0.100068      0.009922
Ni	      8.23787      6.03026     -2.09357        -0.142213     -0.021741      0.035992
Ni	      8.03999     10.28735     -6.34286        -0.044340     -0.044956      0.044501
Ni	     -0.03531      6.05670      1.84361        -0.020404     -0.048485      0.055271
Ni	     -0.09084     10.30459     -2.40475        -0.052248     -0.017802      0.075163
Ni	      8.24689      7.98644     -0.11226        -0.120712     -0.037724      0.028813
Ni	      8.02217     12.29377     -4.39174        -0.030488     -0.004287      0.028084
Ni	      2.00571      4.15462     -2.16162         0.009791      0.037633      0.014892
Ni	      1.86320      8.38587     -6.42477         0.067734     -0.037152      0.023321
Ni	     10.19969      6.10034     -4.14388         0.037235      0.053653     -0.011231
Ni	     10.02420     10.38453     -8.41199         0.027296     -0.011153     -0.014908
Ni	      1.98907      6.15063     -0.21930        -0.075560      0.029110     -0.027321
Ni	      1.86646     10.36656     -4.46031         0.053391     -0.011384     -0.002045
Ni	     10.22565      8.06244     -2.17186         0.000098      0.013100     -0.023717
Ni	     10.02836     12.35841     -6.44182         0.021698      0.002445      0.000690
Ni	      2.00828      8.09703      1.78069         0.060652     -0.005175     -0.035195
Ni	      1.86331     12.34182     -2.48446         0.049592      0.021906      0.009689
Ni	     10.19854     10.04540     -0.17985         0.002671      0.003071     -0.017288
Ni	     10.02731     14.33314     -4.46707         0.034603     -0.000399      0.019033
Ni	      3.94324     10.13178      1.70443         0.034736     -0.033929     -0.026254
Ni	      3.81440     14.39183     -2.55838         0.082742      0.019383     -0.029270
Ni	     12.11813      6.20797     -6.20451         0.067541      0.010125      0.010694
Ni	     11.98513     10.44847    -10.45033         0.109842      0.002989     -0.005888
Ni	      3.96901      6.16295     -2.21551         0.027302      0.026341      0.042405
Ni	      3.81846     10.44548     -6.50832         0.069127      0.019846     -0.018178
Ni	     12.15281      8.13804     -4.22373         0.023937     -0.021211     -0.020429
Ni	     11.98841     12.41611     -8.47643         0.111291     -0.004202     -0.010451
Ni	      3.99984      8.11919     -0.23136         0.022106     -0.041050      0.046003
Ni	      3.81873     12.41781     -4.53327         0.080121      0.026921     -0.019721
Ni	     12.13154     10.16310     -2.24630         0.024546      0.009656      0.000741
Ni	     12.01619     14.39112     -6.50329         0.067175      0.015074     -0.007431
Ni	      5.98623      6.23613     -4.27669         0.133077      0.035203     -0.028835
Ni	      5.92703     10.48993     -8.51921         0.146481      0.020629     -0.058376
Ni	     14.20879      8.25744     -6.28242         0.139274      0.045453     -0.002244
Ni	     14.17364     12.48900    -10.52401         0.094917      0.025591     -0.036859
Ni	      5.97783      8.18540     -2.30035         0.164001      0.033346      0.008406
Ni	      5.92808     12.46066     -6.54802         0.152402      0.063559     -0.044253
Ni	     14.19378     10.20700     -4.29494         0.151405      0.054310     -0.052438
Ni	     14.15086     14.46283     -8.54806         0.112820      0.035860     -0.061659
Ni	      6.02150     10.18246     -0.32017         0.145222      0.029559     -0.076553
Ni	      5.92270     14.44161     -4.58007         0.151888      0.055136     -0.029877
Ni	     14.20182     12.23186     -2.34364         0.140052      0.041590     -0.053187
Ni	     14.14328     16.44373     -6.59218         0.119676      0.063792     -0.034133
O	      3.91032      4.27787     -2.24772         0.109557     -0.129423      0.076677
O	      3.74743      8.55603     -6.59724         0.166078     -0.116043      0.135339
O	     12.10616      6.24322     -4.29095         0.084157     -0.167879      0.123926
O	     11.92824     10.50503     -8.54430         0.094306     -0.116371      0.123118
O	      4.01008      6.23190     -0.31019         0.153900     -0.114546      0.111800
O	      3.74743     10.52348     -4.59674         0.134535     -0.120890      0.118904
O	     12.11505      8.10628     -2.33812         0.113794     -0.084852      0.158538
O	     11.91311     12.48877     -6.57454         0.094649     -0.117957      0.125862
O	      3.92684      8.21304      1.66601         0.130417     -0.133084      0.106725
O	      3.74855     12.47951     -2.63640         0.128108     -0.120228      0.119294
O	     12.09359     10.21195     -0.23484         0.074394     -0.127177      0.073393
O	     11.92916     14.46085     -4.58415         0.109249     -0.117086      0.102941
O	      6.05639     10.25871      1.57088         0.021521     -0.152413      0.163497
O	      5.96886     14.50485     -2.67964        -0.062071     -0.100552      0.099667
O	     14.30024      6.37350     -6.37616        -0.000873     -0.130054      0.138494
O	     14.33566     16.50110     -4.67027        -0.148075     -0.109888      0.104777
O	      5.88955      6.26468     -2.34145         0.133681     -0.122566      0.124020
O	      5.95764     10.56501     -6.61945        -0.026178     -0.131722      0.132959
O	     14.08844      8.25167     -4.33483         0.193229     -0.116249      0.087513
O	     14.35047     12.53264     -8.60241        -0.152904     -0.103248      0.120066
O	      5.91927      8.24065     -0.36687         0.108122     -0.124451      0.121289
O	      5.97400     12.54185     -4.64500        -0.064919     -0.114186      0.107613
O	     14.23951     10.31651     -2.40586         0.014450     -0.127788      0.147760
O	     14.20381     14.55184     -6.66198        -0.014584     -0.140804      0.138037
O	      3.98847      6.04457     -4.06062        -0.107198      0.181456     -0.139968
O	      3.92393     10.36329     -8.40069        -0.125859      0.154511     -0.141286
O	     12.18532      8.08535     -6.09781        -0.084341      0.157967     -0.155290
O	     12.18763     12.32301    -10.35223        -0.095309      0.146014     -0.150013
O	      3.98592      8.02118     -2.07038        -0.127170      0.159487     -0.144125
O	      3.92244     12.33424     -6.41923        -0.133497      0.138488     -0.149857
O	     12.21601      9.99686     -4.20623        -0.134839      0.198826     -0.088491
O	     12.16288     14.28659     -8.40024        -0.112646      0.155799     -0.136551
O	      4.03000      9.96096     -0.21365        -0.128262      0.133569     -0.122713
O	      3.92547     14.30609     -4.44696        -0.139068      0.144020     -0.159436
O	     12.21078     12.16254     -2.14248        -0.107234      0.102696     -0.152609
O	     12.15464     16.28525     -6.40037        -0.111685      0.138418     -0.153090
O	      6.16014      1.93981     -1.93384        -0.001477      0.154661     -0.150068
O	      6.22330     12.04854     -0.21541         0.033412      0.157137     -0.145655
O	     14.35031      3.94131     -3.93945        -0.000160      0.137180     -0.175082
O	     14.29132      8.21338     -8.16698         0.011234      0.121487     -0.172158
O	      6.17467      3.89805      0.04492        -0.004221      0.160472     -0.169194
O	      6.03948      8.08457     -4.14676         0.021171      0.167812     -0.167913
O	     14.35917      5.89525     -1.95566         0.000634      0.166811     -0.139567
O	     14.08064     10.12165     -6.17117        -0.024886      0.162971     -0.139071
O	      6.17385      5.87498      2.01522        -0.000378      0.156244     -0.162207
O	      6.06460     10.06859     -2.20740         0.020143      0.138579     -0.137156
O	     14.31422      7.88950     -0.00601        -0.008410      0.159623     -0.153178
O	     14.03195     12.10471     -4.21321         0.000679      0.184713     -0.158805
O	     16.20574      6.22418     -4.24824        -0.004688     -0.172093      0.137925
O	     16.15985     10.54788     -8.62765        -0.027830     -0.221086      0.186270
O	      7.99333      4.18358     -2.20852        -0.009067     -0.170009      0.136709
O	      7.81136      8.44478     -6.52173        -0.030924     -0.179996      0.205941
O	     16.16252      8.18825     -2.28128        -0.001204     -0.132377      0.172055
O	     16.20880     12.49782     -6.63743        -0.036659     -0.193549      0.247683
O	      8.00194      6.13983     -0.24019        -0.002604     -0.159334      0.167296
O	      7.84667     10.46108     -4.49403        -0.022040     -0.198491      0.178919
O	     16.19210     10.17273     -0.30901        -0.001215     -0.150230      0.152167
O	     16.11859     14.53864     -4.54773        -0.020472     -0.196708      0.158043
O	      7.99782      8.11264      1.73623        -0.003471     -0.141321      0.164876
O	      7.85836     12.38488     -2.52339        -0.009216     -0.205609      0.183930
O	      2.00713      4.28541     -0.30781         0.103126     -0.182323      0.138801
O	      1.77873      8.48735     -4.55045         0.220796     -0.097662      0.109587
O	     10.25328      6.20558     -2.28869         0.141053     -0.113408      0.113089
O	     10.08896     10.49966     -6.55779         0.103665     -0.119602      0.135111
O	      2.00193      6.24302      1.64953         0.074128     -0.128540      0.185829
O	      1.91142     10.49577     -2.61272         0.094848     -0.127203      0.132014
O	     10.27801      8.18250     -0.31806         0.113027     -0.134422      0.147028
O	     10.07262     12.47121     -4.58026         0.122141     -0.117438      0.111815
O	      2.04704      2.29496     -2.28395         0.092203     -0.156820      0.157661
O	      1.75548     12.42840     -0.60463         0.169832     -0.118020      0.098306
O	     10.23331      4.25025     -4.24303         0.092597     -0.134096      0.109870
O	     10.05790      8.52647     -8.52713         0.136395     -0.128630      0.118995
O	      0.12397      4.00768     -2.02160        -0.124421      0.121215     -0.103917
O	     -0.01581      8.31809     -6.34775        -0.173705      0.123869     -0.159998
O	      8.33734      5.96095     -3.99430        -0.111962      0.110628     -0.121838
O	      8.15638     10.25820     -8.27361        -0.089652      0.140073     -0.105898
O	     -0.04610      5.96049     -0.04100        -0.041431      0.114426     -0.116931
O	     -0.01058     10.25030     -4.35732        -0.117693      0.161610     -0.114164
O	      8.33879      7.93169     -2.00770        -0.092688      0.124395     -0.119898
O	      8.16052     12.21946     -6.31359        -0.093144      0.095963     -0.118022
O	      0.13763      7.97572      1.91958        -0.164042      0.095990     -0.121464
O	     -0.01628     12.22981     -2.38663        -0.120581      0.133205     -0.123804
O	      8.32316      9.88100     -0.06002        -0.055010      0.124725     -0.106662
O	      8.15874     14.21593     -4.35117        -0.104169      0.103526     -0.126631
O	      1.96779      4.02784     -4.00843        -0.112636      0.147815     -0.152745
O	      1.81201      8.27649     -8.27967        -0.160068      0.123081     -0.160502
O	     10.10412     11.89790     -0.06900        -0.129691      0.121301     -0.112071
O	      9.97404     10.27179    -10.27307        -0.135242      0.124574     -0.128097
O	      2.11349      6.02509     -2.09179        -0.190677      0.104082     -0.153981
O	      1.81064     10.23938     -6.31523        -0.139330      0.156790     -0.126643
O	     10.28652      7.98210     -4.04970        -0.257365      0.076548     -0.080471
O	      9.97438     12.24169     -8.30137        -0.129372      0.137239     -0.122604
O	      2.13487      8.02100     -0.09290        -0.155164      0.160460     -0.116394
O	      1.81011     12.22491     -4.34336        -0.150917      0.148529     -0.142801
O	     10.15012      9.91677     -2.04054        -0.112847      0.143707     -0.125476
O	      9.97919     14.21881     -6.32356        -0.108687      0.112567     -0.128344
