# total energy = -827.62271885 eV
 
CRYSTAL
PRIMVEC
0.004932 5.937786 5.936208 
16.259020 4.044533 -4.029875 
-0.229704 8.523479 -8.520968 
PRIMCOORD
175 1
Li	      8.20277      8.14568      3.72053         0.003656      0.014828     -0.004465
Li	      8.16666      6.47314     -6.45863        -0.039477      0.009570     -0.011617
Li	      0.18717      4.57872     -4.54991        -0.022078      0.026963     -0.039170
Li	      8.22191      4.20812     -0.21829        -0.004482      0.015201     -0.029930
Li	      8.12395      8.45823     -4.50392        -0.046103      0.022717     -0.024422
Li	      0.21630      2.11182      1.59050        -0.035724      0.027041      0.027083
Li	      8.25243      6.19455      1.74671        -0.001638      0.017581     -0.010147
Li	      8.10996     10.45679     -2.47129        -0.017917      0.010674     -0.006344
Li	      0.22845      4.32070      3.73898        -0.015121      0.011006      0.002758
Li	      3.96219      7.82889      4.01959         0.018577     -0.018261      0.057587
Li	     12.00960      3.94152     -3.93035         0.003755      0.047252      0.000533
Li	     11.86541      8.27550     -8.04660         0.032859     -0.003107      0.025939
Li	      3.94967      3.91098      0.08274        -0.010444     -0.007537     -0.020778
Li	      3.71135      8.08922     -4.22104        -0.042894      0.046534      0.002526
Li	     12.02010      5.93012     -1.96153         0.001768     -0.000238      0.004448
Li	      3.87524      5.90525      2.05694         0.001333     -0.045852      0.033266
Li	      3.73998     10.22658     -2.05404         0.040850     -0.019156      0.009145
Li	     12.02597      7.91675      0.01763         0.000696     -0.000038     -0.047214
Li	     11.87959     12.00694     -4.30212         0.045070     -0.028231      0.003312
Li	      6.01620      4.03837     -1.98802         0.014566     -0.034778      0.043651
Li	      5.87962      8.18430     -6.24816         0.005822     -0.013057      0.011835
Li	     14.22310      6.01369     -4.07954         0.014584     -0.029093      0.039751
Li	     14.09935     10.25741     -8.16852         0.027528     -0.018153      0.011403
Li	      6.03287      5.96924     -0.03191         0.005822     -0.018013      0.034905
Li	      5.91403     10.19623     -4.30278        -0.009273     -0.022643      0.032414
Li	     14.21795      8.05259     -2.09776        -0.004787     -0.029362      0.048974
Li	     14.21017     12.10378     -6.19545         0.076560     -0.051591      0.015116
Li	      6.02591      7.94700      1.92520         0.047905     -0.028775      0.026597
Li	      5.90353     12.23848     -2.25008         0.006069     -0.014388      0.012773
Li	     14.25568     10.03463     -0.04952         0.005644     -0.045009      0.012404
Li	     14.12613     14.14772     -4.28183         0.035178     -0.006856      0.046450
Ni	      0.05295      8.04160      3.81692         0.126252     -0.570693      0.944126
Ni	     -0.16330     12.41994     -0.54650         0.012405     -0.072166     -0.060686
Ni	      8.12928      4.08490     -4.06255        -0.104551     -0.065811      0.070962
Ni	      8.02268      8.36009     -8.33629        -0.127276     -0.006511     -0.007478
Ni	      0.01470      4.11933     -0.16888         0.109025     -0.033343      0.057837
Ni	     -0.13958      8.41369     -4.46923         0.230437     -0.052951      0.091598
Ni	      8.12704      6.05846     -2.08510        -0.122408     -0.036230      0.024873
Ni	      7.96495     10.38558     -6.38742        -0.006957     -0.086985      0.066692
Ni	     -0.00067      6.11860      1.77632         0.047595     -0.073051     -0.000758
Ni	     -0.12206     10.35969     -2.42961         0.330583     -1.297229      0.810267
Ni	      8.13260      8.04654     -0.10692        -0.116861     -0.015713      0.028706
Ni	      8.00671     12.32339     -4.37848        -0.036556     -0.037954      0.036568
Ni	      2.04727      4.15158     -2.19226        -0.096585      0.159958      0.039297
Ni	      1.84891      8.43223     -6.47672         0.014663     -0.022542      0.021605
Ni	     10.07920      6.15856     -4.15403         0.060415     -0.192863      0.006077
Ni	      9.94155     10.43909     -8.43546         0.050494     -0.000153      0.021126
Ni	      2.01620      6.12752     -0.22646        -0.056406     -0.017192      0.020278
Ni	      1.84999     10.40662     -4.48429        -0.129127     -0.034591     -0.169856
Ni	     10.06708      8.13980     -2.18581         0.068851     -0.000226      0.186525
Ni	      9.95807     12.41530     -6.45709         0.047001     -0.030947     -0.003759
Ni	      2.02759      8.08940      1.77048        -0.248706     -0.015989     -0.138578
Ni	      1.85859     12.39955     -2.51797        -0.072654      0.160398     -0.001378
Ni	     10.08013     10.11476     -0.19756         0.008848     -0.001433      0.010573
Ni	      9.97098     14.40037     -4.48449         0.032589      0.013005     -0.002649
Ni	      3.94536     10.17737      1.69976        -0.092295      0.264436     -0.498939
Ni	      3.83599     14.41028     -2.54882        -0.004828     -0.006657      0.023715
Ni	     12.04558     12.16592     -0.28724        -0.038483     -0.088871      0.002819
Ni	     11.87560     10.53874    -10.51414         0.100299      0.027373     -0.011409
Ni	      3.98162      6.19189     -2.21299         0.003203     -0.035104      0.221003
Ni	      3.81148     10.45749     -6.51020         0.127146      0.010272      0.018883
Ni	     12.01099      8.23456     -4.26543        -0.113794      0.602135     -0.725942
Ni	     11.88424     12.50627     -8.52469         0.126782     -0.008135     -0.008411
Ni	      3.97588      8.12084     -0.21145        -0.007913     -0.096434     -0.181155
Ni	      3.81769     12.44107     -4.54267         0.050414     -0.036805     -0.005849
Ni	     12.00735     10.19398     -2.25382         0.073848      0.003630      0.057838
Ni	     11.91501     14.49545     -6.56573        -0.030929     -0.003127     -0.005696
Ni	      5.94475      6.27346     -4.28384         0.312971     -0.023798     -0.013372
Ni	      5.91703     10.52594     -8.54399         0.097260      0.021230     -0.010030
Ni	     14.12315      8.31250     -6.31598         0.120553      0.095992     -0.097064
Ni	     14.05281     12.60183    -10.61338         0.091311      0.045520     -0.035564
Ni	      6.01224      8.25855     -2.29374         0.127461      0.059880     -0.050815
Ni	      5.91903     12.51762     -6.54510         0.114257     -0.009830     -0.029625
Ni	     14.14697     10.27608     -4.35463         0.094814      0.133119      0.001288
Ni	     14.04802     14.58578     -8.62140         0.142837      0.004080     -0.175292
Ni	      5.96652     10.24236     -0.30115         0.177286      0.028033      0.013065
Ni	      5.86779     14.47068     -4.58252         0.151658      0.033304      0.003325
Ni	     14.13999     12.27013     -2.36613         0.165655      0.050338     -0.157784
Ni	     14.01332     16.57589     -6.66221         0.193849      0.129803     -0.003751
O	      3.94179      4.30379     -2.29673         0.202662     -0.087500      0.636157
O	      3.75690      8.55434     -6.58925         0.174347     -0.112584      0.118244
O	     11.96614      6.31661     -4.29061         0.075336     -0.887429      0.201792
O	     11.83110     10.59888     -8.61728         0.132208     -0.087195      0.112233
O	      3.93082      6.21784     -0.28916         0.239592     -0.039269      0.031915
O	      3.73743     10.46885     -4.60952         0.187198     -0.108879      0.118570
O	     11.95932      8.27896     -2.33323         0.052292     -0.180844      0.877902
O	     11.83914     12.60051     -6.62766         0.115397     -0.118914      0.113738
O	      3.90280      8.06245      1.66354         0.227629      0.159013      0.151346
O	      3.75168     12.52338     -2.65877         0.171632     -0.153545      0.116480
O	     11.96945     10.25192     -0.34220         0.097107     -0.102300      0.100541
O	     11.84829     14.57605     -4.65004         0.098979     -0.126842      0.100994
O	      5.89298      4.36200     -4.33079         0.502394     -0.014208      0.158756
O	      5.73705     14.40150     -2.64173         0.190536     -0.079673      0.117342
O	     14.21542     12.33688     -0.47383         0.199847     -0.159086      0.168836
O	     14.20928     16.63430     -4.74686        -0.140856     -0.087911      0.078685
O	      5.87024      6.21484     -2.33760         0.100090     -0.085503      0.123107
O	      6.04816     10.58531     -6.50311        -0.205765     -0.090034      0.053407
O	     14.21870      8.38151     -4.41458        -0.348937     -0.124464      0.136705
O	     14.23753     12.64538     -8.68357        -0.170285     -0.069189      0.062929
O	      5.87310      8.28582     -0.23733         0.087190     -0.137445      0.085498
O	      5.90973     12.57407     -4.64686         0.008587     -0.128137      0.122938
O	     14.37150     10.33041     -2.42123        -0.169694     -0.068442      0.058519
O	     14.09010     14.68351     -6.73731         0.209708     -0.059108      0.193019
O	      3.95925      6.22876     -4.03004        -0.189143     -0.229169     -0.186768
O	      3.91242     10.35062     -8.38115        -0.067456      0.174734     -0.141993
O	     12.13193      8.07615     -6.13729        -0.114670      0.009788     -0.626865
O	     12.06233     12.41686    -10.39444        -0.092375      0.148129     -0.148341
O	      3.99142      8.05982     -2.08717        -0.111997      0.105624     -0.070616
O	      3.91366     12.35219     -6.41364        -0.108220      0.118002     -0.135439
O	     12.16541     10.09432     -4.09233        -0.045795      0.648528      0.032742
O	     12.05511     14.38321     -8.46570        -0.129352      0.134064     -0.107116
O	      3.95169      9.95714     -0.15994        -0.174507      0.033075     -0.529270
O	      3.85975     14.36551     -4.41758        -0.122063      0.171513     -0.178816
O	     12.15869     12.06952     -2.19252        -0.113091      0.109934     -0.051872
O	     12.02296     16.38107     -6.45799        -0.111541      0.131645     -0.150144
O	      6.11421      7.82500      3.93567        -0.016687      0.157660     -0.101416
O	      6.16711      6.17053     -6.14616         0.023449      0.174644     -0.159034
O	     14.06417      3.99356     -3.96721        -0.016397      0.082637     -0.146376
O	     14.10163      8.24019     -8.21208        -0.011861      0.089302     -0.116255
O	      6.11392      3.99086      0.10007        -0.012243      0.104859     -0.121430
O	      6.04032      8.13987     -4.28138        -0.019003      0.160899     -0.100942
O	     14.25435      5.96582     -1.99233        -0.036523      0.143040     -0.141717
O	     14.12318     10.16843     -6.21392        -0.012814      0.123278     -0.149656
O	      6.14926      5.87888      2.05374        -0.026425      0.157415     -0.152963
O	      5.99987     10.24700     -2.17382         0.003556      0.101640     -0.161913
O	     14.20612      7.96329     -0.03056        -0.020122      0.143229     -0.118749
O	     13.97745     12.16470     -4.24470         0.015273      0.154248     -0.114249
O	     16.11003      6.33225     -4.29374        -0.155120     -0.053867      0.615059
O	     15.98270     10.61986     -8.68511        -0.047375     -0.176546      0.166863
O	      7.94310      4.19167     -2.19864         0.010517     -0.140501      0.182501
O	      7.83183      8.52305     -6.48919        -0.013104     -0.195607      0.180295
O	     16.13521      8.30435     -2.29644        -0.011766     -0.152390      0.023809
O	     16.00839     12.57538     -6.67416        -0.348512     -0.285934     -0.189224
O	      7.95120      6.18784     -0.22792        -0.009886     -0.156384      0.164712
O	      7.87420     10.45772     -4.52154        -0.023309     -0.144361      0.215640
O	     16.13534     10.23961     -0.41948        -0.130864     -0.741409     -0.096301
O	     15.97607     14.64152     -4.57725        -0.057730      0.110141      0.604639
O	      7.96501      8.16339      1.75185         0.001448     -0.188811      0.146699
O	      7.86026     12.43717     -2.50257        -0.003916     -0.165791      0.142561
O	      2.06819      4.27464     -0.34701         0.123850     -0.102895      0.140175
O	      1.77856      8.52496     -4.59472         0.098465     -0.105765      0.112384
O	     10.14536      6.28031     -2.29415         0.114526     -0.095498      0.097123
O	      9.87964     10.52629     -6.55241         0.209777     -0.081565      0.099149
O	      1.91472      6.21426      1.66323         0.198724     -0.095185      0.120323
O	      1.91013     10.54894     -2.63064        -0.307785     -0.123031      0.177502
O	     10.15083      8.25491     -0.32505         0.076678     -0.096660      0.066184
O	     10.04505     12.54334     -4.60412         0.094673     -0.105707      0.122634
O	      2.10047      8.23245      3.62303        -0.226454     -0.169814      0.185543
O	      1.73722     12.49851     -0.64095         0.132854     -0.118789      0.107380
O	     10.15133      4.29607     -4.27317         0.121470     -0.049832      0.077342
O	     10.02866      8.58639     -8.56146         0.110819     -0.124036      0.103973
O	      0.19117      4.00278     -2.10330        -0.019384      1.022765     -0.131227
O	     -0.02771      8.37662     -6.38524        -0.217347      0.149508     -0.073211
O	      8.20557      5.99123     -3.98953        -0.062487      0.144314     -0.094754
O	      8.05248     10.29413     -8.28687        -0.123726      0.083170     -0.142323
O	      0.14390      6.00872     -0.10613        -0.211840      0.164780     -0.088497
O	     -0.01850     10.29740     -4.37882        -0.017568      0.161354     -0.969208
O	      8.18042      7.98204     -2.02568        -0.080081      0.088954     -0.116887
O	      8.08866     12.27143     -6.31243        -0.116319      0.160936     -0.084293
O	      0.15129      8.00627      1.89342         0.016489      0.146939     -0.985295
O	     -0.01159     12.27991     -2.42325        -0.104423      1.084191     -0.158326
O	      8.20748      9.95786     -0.04105        -0.067864      0.092188     -0.123031
O	      8.09394     14.23315     -4.31581        -0.096219      0.081187     -0.100132
O	      2.05515      9.94808      1.87145        -0.537400      0.048941      0.001110
O	      1.95324      8.34333     -8.33828        -0.180994      0.058495     -0.158344
O	     10.00216      6.03553     -6.01057        -0.110161      0.086470     -0.087307
O	      9.86459     10.32607    -10.29439        -0.132524      0.090882     -0.153305
O	      2.11249      6.03375     -2.08310        -0.093290      0.051453     -0.159083
O	      1.81632     10.28384     -6.34469        -0.069289      0.153281     -0.088374
O	      9.98130      8.01525     -4.04134         0.183363      0.166950     -0.169403
O	      9.87078     12.29412     -8.31548        -0.129498      0.137741     -0.113397
O	      2.10285      7.98924     -0.09855        -0.119761      0.150494     -0.074847
O	      1.82682     12.25444     -4.37555        -0.094913      0.137913     -0.157235
O	      9.98823      9.99905     -2.05853        -0.130905      0.084223     -0.092606
O	      9.88418     14.27286     -6.34428        -0.111766      0.129476     -0.099433
