# total energy = -831.53797900 eV
 
CRYSTAL
PRIMVEC
-0.003187 5.912369 5.915240 
16.599361 4.026890 -4.037647 
-0.149646 8.347619 -8.350775 
PRIMCOORD
176 1
Li	      8.10994      2.12040     -2.11667         0.035261      0.011413     -0.017210
Li	      8.15363     12.07720     -0.25915         0.025256      0.017698     -0.010779
Li	      0.09265      0.24945     -0.20026        -0.005935      0.016084     -0.038504
Li	      8.06129      4.11383     -0.17066         0.020929     -0.003020     -0.001726
Li	      8.19212      8.18158     -4.21984         0.001964      0.015886     -0.000773
Li	      0.23891      2.26994      1.68388        -0.022596      0.035323     -0.038520
Li	      8.11857      6.05952      1.80349         0.034015      0.007341     -0.019704
Li	      8.19530     10.11442     -2.27084         0.001634      0.004583     -0.020920
Li	      0.12791      4.16269      3.70563        -0.015625      0.025034     -0.019141
Li	     10.35433      4.00097     -2.03181         0.009599      0.004164      0.000089
Li	     10.26432      8.15665     -6.20983         0.012756     -0.002082      0.021649
Li	     10.33413      5.97287     -0.05757         0.015173      0.001092     -0.010043
Li	     10.29142     10.14436     -4.24243         0.017173     -0.009428      0.005746
Li	      2.44270      6.21098      3.61715        -0.027878      0.078986      0.030198
Li	     10.35423      7.93226      1.91229         0.011251      0.004280     -0.007526
Li	     10.27308     12.08960     -2.24104         0.004270     -0.007772      0.006743
Li	      3.76648     11.94840     -0.13007        -0.023710      0.039182      0.007033
Li	     12.44337     10.01788      1.79956         0.015488      0.006021     -0.010163
Li	     12.34742      8.25408     -8.26298         0.009497     -0.004105      0.005598
Li	     12.44912      6.06232     -2.12458         0.003701      0.004702     -0.010914
Li	     12.36682     10.22637     -6.29293         0.003692     -0.007987      0.003528
Li	     12.45599      8.04143     -0.15216         0.003784      0.012029     -0.010813
Li	     12.35368     12.20479     -4.32731         0.004497     -0.005804      0.006667
Li	      6.07532      8.07599     -6.07261        -0.006459     -0.028393      0.024562
Li	     14.52162      6.10418     -4.12944         0.015289     -0.015080      0.010957
Li	     14.58502     10.13449     -8.16005        -0.026767     -0.016432      0.018594
Li	      5.71770      9.92093     -4.02051        -0.028559     -0.007603      0.057415
Li	     14.52586      8.05666     -2.15180         0.002796     -0.011600      0.010551
Li	     14.63332     12.08913     -6.18691        -0.030196     -0.009869      0.016589
Li	      6.08143     11.97205     -2.18332        -0.002529     -0.027136      0.011225
Li	     14.56335     10.04854     -0.19521         0.004280     -0.007213      0.005113
Li	     14.56767     14.07022     -4.23683        -0.010232     -0.016773      0.023504
Ni	      0.05004      2.12338     -2.11643        -0.008584     -0.006258     -0.060690
Ni	     -0.06873      6.33407     -6.33173        -0.059522     -0.024456      0.009896
Ni	      8.24070      9.90697      1.91190        -0.080171     -0.050177      0.071201
Ni	      8.23258     14.05427     -2.23993        -0.097820     -0.035394      0.081781
Ni	      0.03465      4.13201     -0.18664        -0.093595     -0.081744      0.038676
Ni	     -0.09553      8.35206     -4.41463        -0.051928      0.015257      0.007003
Ni	      8.21279      5.97182     -2.04660        -0.092803      0.015286      0.038468
Ni	      8.16899     10.12724     -6.19259         0.118679     -0.077748      0.075030
Ni	      0.04519      6.06461      1.82190        -0.203002      0.063532      0.083637
Ni	     -0.09492     10.32265     -2.43116        -0.067595      0.019513     -0.014817
Ni	      8.20797      7.94742     -0.06145        -0.064757     -0.065297     -0.013902
Ni	      8.18893     12.09257     -4.21915         0.000569     -0.073911      0.066412
Ni	      2.06837      4.11987     -2.15441        -0.471551     -0.170403      0.257526
Ni	      1.94323      8.32682     -6.34234         0.016025     -0.159595     -0.026460
Ni	     10.31679      6.08425     -4.12127        -0.001324      0.007758      0.015876
Ni	     10.26503     10.27597     -8.31159        -0.067693      0.006427      0.004205
Ni	      2.07087      6.10153     -0.18125        -0.085257     -0.134833     -0.348562
Ni	      1.90965     10.28783     -4.36931         0.048130     -0.037103      0.190909
Ni	     10.35022      8.06297     -2.15508        -0.096057     -0.010636     -0.005652
Ni	     10.25213     12.25009     -6.35323        -0.060885     -0.017766      0.008356
Ni	      2.05576      8.09677      1.75242        -0.497890      0.219632     -0.009014
Ni	      1.93618     12.25492     -2.39568        -0.022078      0.020910     -0.031565
Ni	     10.31837     10.02622     -0.17853         0.014111     -0.010756     -0.005596
Ni	     10.24371     14.21142     -4.36736        -0.009473      0.004712      0.004942
Ni	      4.05165      4.11059     -4.10717         0.199052     -0.202978      0.221111
Ni	      3.97207      8.27556     -8.27091        -0.084001     -0.047079      0.022990
Ni	     12.39995      6.16594     -6.17095         0.051335      0.006530     -0.001426
Ni	     12.34536     16.25294     -4.43997         0.015590      0.014214     -0.005986
Ni	      4.04508      6.09827     -2.16810        -0.125326     -0.064185      0.040452
Ni	      3.96724     10.27714     -6.33215        -0.255782      0.531663     -0.291382
Ni	     12.37043      8.12976     -4.19470         0.103273      0.015941      0.002376
Ni	     12.32690     12.30676     -8.37476         0.096500      0.010294     -0.009004
Ni	      4.04598      8.08127     -0.19466         0.031062     -0.102187      0.059818
Ni	      3.96188     12.21594     -4.33799        -0.022037     -0.015130      0.021180
Ni	     12.40189     10.10860     -2.22881         0.038746     -0.008887     -0.014955
Ni	     12.32216     14.27397     -6.40924         0.093349      0.005063     -0.010566
Ni	      6.06517      6.13850     -4.16920         0.069868      0.024837     -0.008792
Ni	      6.07106     10.16057     -8.20107        -0.006601     -0.039425     -0.146553
Ni	     14.49805      8.25815     -6.30227         0.186203      0.000073      0.003596
Ni	     14.38556     12.45566    -10.49796         0.075777      0.070504     -0.043692
Ni	      6.08490      8.06356     -2.15586         0.046537      0.075805     -0.099171
Ni	      6.09821     12.12622     -6.22651         0.004475      0.161083     -0.021816
Ni	     14.49514     10.23286     -4.31905         0.096193     -0.000529     -0.019082
Ni	     14.41455     14.41827     -8.51850         0.059705      0.047349     -0.032860
Ni	      6.06209     10.07706     -0.23196         0.059699      0.021241     -0.009767
Ni	      6.05245     14.13437     -4.29587         0.030418      0.001371      0.014794
Ni	     14.46420     12.20862     -2.35936         0.213080      0.032458     -0.011620
Ni	     14.38468     16.40104     -6.55297         0.079824      0.041478     -0.074397
O	      3.92152      4.24097     -2.23361         1.355566      0.156759     -0.226804
O	      3.81421      8.36943     -6.39834         0.130054     -0.908497      0.149056
O	     12.45680      6.24100     -4.26683         0.051998     -0.146760      0.123978
O	     12.36748     10.41695     -8.45086         0.071901     -0.135656      0.114592
O	      3.93362      6.21697     -0.31032         0.209125     -0.102681      0.110132
O	      3.77717     10.35378     -4.45070         0.067084     -0.173632      0.936871
O	     12.44756      8.20060     -2.29833         0.072863     -0.127099      0.138804
O	     12.37687     12.38263     -6.48866         0.055863     -0.124068      0.143370
O	      3.91371      8.16279      1.65886         1.546738      0.186289     -0.163193
O	      3.79935     12.30745     -2.41874         0.191277     -0.122479      0.119296
O	     12.44878     10.17629     -0.33319         0.042654     -0.139861      0.140558
O	     12.36799     14.35861     -4.51844         0.049851     -0.121614      0.136966
O	      5.95389      4.25627     -4.26072         0.069108     -0.131503      0.133837
O	      5.86699      8.24189     -8.24727         0.210035     -0.125429      0.109050
O	     14.53308     12.27635     -0.46579        -0.069600     -0.149511      0.171329
O	     14.45559     16.48873     -4.67527         0.001187     -0.136355      0.142033
O	      5.95647      6.20873     -2.26065         0.179894     -0.171487      0.090830
O	      6.05915     10.20834     -6.27851        -0.280052     -0.169793      0.155333
O	     14.69795      8.31857     -4.38609        -0.107070     -0.113231      0.143531
O	     14.59001     12.50828     -8.58355        -0.143550     -0.107807      0.106164
O	      5.95468      8.17447     -0.29974         0.105442     -0.070069      0.185693
O	      6.06628     12.19754     -4.31847         0.011090     -0.126491      0.106971
O	     14.53261     10.31281     -2.42379        -0.016558     -0.181482      0.137794
O	     14.58998     14.48532     -6.60943        -0.150617     -0.096415      0.118169
O	      4.06221      5.95565     -4.02242        -0.109458      0.183894     -0.214898
O	      4.21068     10.12658     -8.19196         0.040303     -0.104048     -0.762689
O	     12.37215      8.06588     -6.07722        -0.071854      0.139134     -0.155269
O	     12.31541     12.25004    -10.27286        -0.068862      0.123236     -0.144787
O	      4.21997      7.98158     -2.07549        -0.250363      0.148959     -0.144723
O	      4.24736     12.12656     -6.20657         0.099611      0.674762      0.038453
O	     12.37009     10.01543     -4.12742        -0.072839      0.141852     -0.128871
O	     12.35455     14.20733     -8.30941        -0.087006      0.126360     -0.124974
O	      4.05375      9.93587     -0.03902        -0.024415      0.232213     -0.198540
O	      4.04444     14.06010     -4.18334        -0.070761      0.117324     -0.176007
O	     12.33419     12.00650     -2.15323        -0.090253      0.133199     -0.130459
O	     12.31919     16.17312     -6.35889        -0.083336      0.140434     -0.119880
O	      6.30984      1.71427     -1.67324         0.061593      0.189588     -0.187905
O	      6.11245     11.97602     -0.16020         0.015137      0.084317     -0.125234
O	     14.51476      4.03039     -4.03546        -0.012942      0.163543     -0.157661
O	     14.31885      8.16510     -8.16591        -0.047927      0.179467     -0.199193
O	      6.28561      3.61867      0.30047         0.060105      0.242134     -0.186237
O	      6.22811      7.99702     -4.02265         0.026196      0.154768     -0.197400
O	     14.51166      5.98667     -2.04886        -0.021008      0.171288     -0.169830
O	     14.34232     10.12255     -6.18252        -0.030555      0.174981     -0.179257
O	      6.33048      5.59918      2.21673         0.075264      0.173416     -0.213200
O	      6.22567      9.93240     -2.09375         0.039475      0.193478     -0.142281
O	     14.53853      7.95916     -0.08630        -0.021443      0.155599     -0.156168
O	     14.31525     12.09320     -4.22687        -0.032149      0.180875     -0.172905
O	     16.48542      6.28860     -4.29232        -0.008983     -0.135190      0.190945
O	     16.40381     10.56425     -8.53680        -0.044261     -0.266083      0.203897
O	      8.38882      4.10827     -2.13567         0.005747     -0.176165      0.144989
O	      8.22052      8.22728     -6.27176         0.001144     -0.168468      0.163628
O	     16.48119      8.23602     -2.35858         0.016733     -0.188448      0.179410
O	     16.44528     12.53732     -6.63893        -0.061239     -0.246524      0.250145
O	      8.35913      6.08218     -0.18256         0.002316     -0.150533      0.175006
O	      8.30821     10.21848     -4.31375         0.011571     -0.143642      0.193609
O	     -0.01926      6.14238      3.73053        -0.045250     -0.185105      0.137710
O	     16.39484     14.43478     -4.65395        -0.034603     -0.199696      0.264584
O	      8.38482      8.03739      1.80340         0.007105     -0.153396      0.168149
O	      8.24797     12.17063     -2.31525        -0.004002     -0.167063      0.130997
O	      1.89801      4.21762     -0.27187        -0.079546      0.053141      0.909621
O	      1.77863      8.41958     -4.48727         0.203723     -0.124215      0.150456
O	     10.34851      6.17837     -2.22275         0.058578     -0.151187      0.126396
O	     10.26854     10.34976     -6.41914         0.072819     -0.123728      0.124273
O	      2.04598      6.24833      1.67225         0.093565     -0.518163      0.213682
O	      1.77678     10.40120     -2.49326         0.216096     -0.132242      0.069295
O	     10.34719      8.12620     -0.27225         0.050256     -0.129055      0.164707
O	     10.29645     12.32011     -4.45147         0.050966     -0.133105      0.131691
O	      2.05284      8.17776      3.60081         0.113630     -1.542898      0.655360
O	      1.94169      6.47998     -6.46977         0.074795     -0.139029      0.156569
O	     10.38126     10.09823      1.71847         0.051936     -0.145907      0.137263
O	     10.28415      8.37917     -8.33801         0.074158     -0.145953      0.077039
O	      0.15758      4.02304     -2.04314        -1.133116      0.101293      0.007770
O	      0.04477      8.27483     -6.32663        -0.139564      0.155822     -0.163106
O	      8.18571      5.89141     -3.94224        -0.049967      0.134367     -0.161458
O	      8.00249     10.04211     -8.10343         0.068680      0.109159     -0.136584
O	      0.15597      5.98639     -0.08818        -0.120904      0.142505     -0.143206
O	      0.01888     10.26941     -4.34909        -0.145773      0.151866     -0.164061
O	      8.01887      7.89067     -1.98183         0.186057      0.082401     -0.073464
O	      8.04412     12.03807     -6.14135         0.037288      0.143974     -0.094192
O	      0.15111      7.94476      1.91101        -1.309234     -0.060819      0.002760
O	      0.04232     12.23180     -2.34867        -0.111206      0.167241     -0.142486
O	      8.18059      9.84251      0.01799        -0.086686      0.167376     -0.155102
O	      8.14931     13.98102     -4.11659        -0.040294      0.136067     -0.155185
O	      2.19194      4.04254     -4.00879         0.168647      0.322714     -1.085595
O	      2.06679     14.14180     -2.32343        -0.132313      0.130497     -0.150236
O	     10.28781      6.01376     -6.01522        -0.081898      0.129211     -0.137250
O	     10.21732     16.09728     -4.28757        -0.075169      0.134547     -0.131210
O	      2.18068      5.98317     -2.03663         0.219219      1.435941      0.253717
O	      1.93192     10.17828     -6.21791         0.181718      0.220099     -0.221019
O	     10.28713      7.98949     -4.04955        -0.090098      0.124913     -0.143965
O	     10.23074     12.17250     -8.24668        -0.087596      0.124479     -0.132125
O	      2.19049      7.95995     -0.11986         0.032494      0.023450     -0.705496
O	      1.91663     12.15640     -4.25657        -0.083019      0.157560     -0.136990
O	     10.27940      9.95005     -2.07975        -0.081731      0.155579     -0.116881
O	     10.23896     14.14089     -6.29761        -0.103875      0.140539     -0.080436
