# total energy = -89.65761495 eV
 
CRYSTAL
PRIMVEC
0.000936 2.034961 2.032037 
2.233079 -2.054716 0.019428 
11.502138 12.753773 0.027195 
PRIMCOORD
16 1
Li	      2.53010      2.20311     -0.15903         0.012608      0.009131     -0.011914
Li	      4.26736      2.05038     -2.04771        -0.017615     -0.014889      0.019111
Li	      7.17571      6.49653     -4.44098         0.049132     -0.002974      0.003646
Li	      9.03278      6.44679     -6.43259        -0.033803      0.005224     -0.006194
Mn	     11.52819     12.72550    -10.67714         0.005954      0.037118     -0.043047
Mn	      4.59747      6.31359     -2.23098         0.005825      0.006081     -0.008717
Ni	      9.07672     10.53671     -6.45591         0.035782      0.022961     -0.018295
Ni	     11.34542     10.57889     -8.53185         0.052154      0.061407     -0.060826
O	     11.32545     12.75383     -8.67139         0.032131      0.056653     -0.053940
O	      9.32048      8.60100     -6.55314        -0.051359     -0.123475      0.126781
O	     11.55637      8.58177     -8.56779        -0.066335     -0.048000      0.047919
O	      6.91113      8.44937     -4.36321         0.010791      0.000554     -0.001357
O	      4.73527      4.36727     -2.31720         0.024254      0.020263     -0.018057
O	      6.68967      4.16941     -4.15643        -0.021717     -0.022433      0.015333
O	      2.16335     -0.16704      0.15625        -0.031094     -0.005095      0.008323
O	      2.28927      4.17232     -0.09812        -0.006709     -0.002525      0.001234
