# total energy = -90.58026846 eV
 
CRYSTAL
PRIMVEC
3.963530 -0.000025 0.000018 
-0.000054 4.221874 -4.220364 
-0.000033 6.240748 2.017856 
PRIMCOORD
16 1
Li	      1.98304      2.08759     -0.01939        -0.000896     -0.001368     -0.002923
Li	      1.98306      6.27251     -0.07456         0.000885     -0.023279      0.025709
Li	      1.98302      4.19878     -2.13003        -0.000783     -0.001563     -0.002647
Li	      1.98307      8.36434     -2.16753         0.000309      0.026748     -0.026181
Mn	      0.00128      4.25017     -4.18961         0.000414     -0.019346     -0.020068
Mn	      0.00129      4.14678     -0.07047        -0.000112      0.018609      0.018276
Ni	      0.00129      8.32609     -0.11581        -0.000586     -0.015155     -0.003682
Ni	      0.00125      6.31161     -2.12625         0.001069      0.013905      0.001457
O	      1.98306      4.13477     -0.08364         0.000181      0.044567      0.042863
O	      0.00133      6.19281      0.00722        -0.000701     -0.115874      0.113586
O	      1.98313      6.33586     -2.10239        -0.002116      0.007898      0.009641
O	      0.00125      8.44481     -2.24984        -0.000615      0.114922     -0.112093
O	      1.98306      8.30158     -0.13975         0.000695     -0.009755     -0.007215
O	      0.00130      4.19837     -2.12986         0.000470      0.002014     -0.000265
O	      1.98304      4.26175     -4.17668         0.001268     -0.043554     -0.037860
O	      0.00132      2.08755     -0.01987         0.000516      0.001229      0.001403
