# total energy = -834.18095014 eV
 
CRYSTAL
PRIMVEC
0.000164 5.913993 5.917441 
16.574349 4.011989 -4.014045 
-0.165198 8.342231 -8.346377 
PRIMCOORD
176 1
Li	      8.23462      2.10944     -2.05829         0.008044      0.023532     -0.012983
Li	      8.16377      6.15887     -6.12864         0.016331      0.015206     -0.009966
Li	      0.22422      0.28647     -0.27616        -0.035387      0.016557     -0.017240
Li	      8.18239      4.08189     -0.15941         0.033633      0.016796     -0.011884
Li	      8.16963      8.09865     -4.19462         0.012756      0.004934     -0.014681
Li	      0.20805      2.24293      1.70939        -0.012191      0.011513     -0.012368
Li	      8.26064      5.99740      1.84859         0.013317      0.014849     -0.014427
Li	      8.12929     10.07141     -2.17989         0.016693      0.010541     -0.010731
Li	      0.27774      4.24188      3.65021        -0.002896     -0.000091      0.003164
Li	     10.33396      3.98773     -1.99071        -0.002720     -0.001172     -0.007063
Li	     10.26951      8.20632     -6.19945         0.013062     -0.024566      0.012366
Li	     10.34804      5.92939     -0.02706        -0.000710      0.006358      0.000377
Li	     10.25646     10.13669     -4.22897         0.004838     -0.000450     -0.007214
Li	     10.30032      7.89175      1.93651        -0.001950      0.018356     -0.001048
Li	     10.24165     12.09887     -2.26440         0.013757     -0.002205      0.010984
Li	     12.42661      9.97684      1.85119        -0.007039      0.000741     -0.000509
Li	     12.32826      8.24851     -8.24381        -0.003687     -0.002663     -0.003758
Li	     12.43292      6.04480     -2.10263        -0.007010      0.002019     -0.003935
Li	     12.29073     10.22325     -6.28778        -0.003717     -0.000485      0.000103
Li	      3.74497      9.96049     -2.05958        -0.012065      0.032561     -0.000493
Li	     12.41593      8.01678     -0.12534        -0.001505      0.005596     -0.003055
Li	     12.30142     12.18820     -4.29721        -0.010777      0.007089     -0.001369
Li	      5.66141      7.90926     -5.95118        -0.036466      0.012970      0.044373
Li	     14.49636      6.05943     -4.08598        -0.008991     -0.016804      0.016823
Li	     14.59696     10.13638     -8.15836        -0.022438     -0.011272      0.010697
Li	      6.04686      9.95627     -4.09864        -0.000991     -0.010533      0.006897
Li	     14.49973      8.03794     -2.11294        -0.009987     -0.019559      0.010912
Li	     14.54348     12.10896     -6.20313        -0.033864     -0.004597      0.006996
Li	      5.74047      7.60735      2.24342         0.010540     -0.022822      0.005221
Li	      6.03856     11.98886     -2.05537         0.005460     -0.040040      0.000323
Li	     14.50496      9.99606     -0.14138        -0.012373     -0.017781      0.015553
Li	     14.55085     14.08393     -4.21555        -0.020773     -0.013811      0.007775
Ni	      0.01874      2.16392     -2.15988        -0.092522     -0.054368      0.049713
Ni	     -0.07134     12.29823     -0.47171        -0.045203     -0.021473     -0.008270
Ni	      8.20724      3.99687     -3.99798        -0.090119     -0.051975      0.035781
Ni	      8.16001      8.13248     -8.13001         0.105894     -0.078591      0.074538
Ni	      0.03938      4.09521     -0.14924        -0.107841     -0.049231      0.057631
Ni	     -0.07125      8.36324     -4.41114        -0.046411      0.003288      0.010974
Ni	      8.23013      5.96402     -2.02228        -0.092670     -0.034291      0.053083
Ni	      8.18374     10.10565     -6.17800        -0.008893     -0.024775      0.075158
Ni	      0.01830      6.10121      1.78171        -0.093187     -0.057507      0.049696
Ni	     -0.04875     10.28671     -2.39969        -0.042489     -0.034538      0.021788
Ni	      8.21229      7.92838     -0.04921        -0.083815     -0.050404      0.049615
Ni	      8.20534     12.07027     -4.18100        -0.062404     -0.037631      0.018259
Ni	      2.03681      4.12448     -2.14438        -0.022156     -0.025978     -0.024102
Ni	      1.92239      8.33045     -6.35694         0.074248     -0.031042      0.183185
Ni	     10.30671      6.06651     -4.09946        -0.007748     -0.005169     -0.006088
Ni	     10.23613     10.24834     -8.29684        -0.055017      0.012834      0.012630
Ni	      2.04382      6.07470     -0.17691        -0.058386      0.022036      0.043744
Ni	      1.95788     10.30642     -4.39836         0.024433      0.032119      0.000146
Ni	     10.30474      8.03999     -2.12436        -0.018001      0.000127      0.005678
Ni	     10.23301     12.23567     -6.32449        -0.060124     -0.016935      0.025559
Ni	      2.02734      8.04988      1.81012        -0.006040     -0.031496      0.023309
Ni	      1.95855     12.28246     -2.41620         0.092917     -0.173576     -0.040530
Ni	     10.29929     10.00881     -0.15182        -0.017194      0.002201      0.000075
Ni	     10.24812     14.20792     -4.33896        -0.057212     -0.020086      0.009138
Ni	      3.97363      4.13975     -4.13803         0.017009     -0.061451     -0.011872
Ni	      3.95844      8.34001     -8.33643        -0.311884      0.445089     -0.175612
Ni	     12.35759     12.04794     -0.22130         0.080796      0.007334     -0.007579
Ni	     12.30364     10.32519    -10.32628         0.087506      0.016824     -0.015548
Ni	      3.99343      6.09788     -2.15737         0.013754     -0.011124      0.053910
Ni	      3.95105     10.31890     -6.37746        -0.035853      0.029243     -0.031050
Ni	     12.38240      8.11855     -4.17591         0.012113      0.004380     -0.000269
Ni	     12.27587     12.29291     -8.36513         0.102810      0.007813      0.002487
Ni	      3.99476      8.04441     -0.16301         0.015443     -0.029800      0.060320
Ni	      3.99014     12.26213     -4.37774        -0.098546     -0.006882     -0.029024
Ni	     12.35491     10.08423     -2.19393         0.082058      0.008119     -0.011521
Ni	     12.30251     14.28094     -6.39079         0.004570     -0.008001     -0.007187
Ni	      6.01973      6.12388     -4.15413         0.095034      0.033087     -0.054950
Ni	      6.09686     10.18180     -8.21734         0.015385      0.200970     -0.107496
Ni	     14.45024      8.25832     -6.27964         0.075478      0.015876     -0.057625
Ni	     14.40710     12.43229    -10.46544         0.060052      0.029648     -0.041814
Ni	      6.01726      8.09295     -2.18729         0.105892      0.070177     -0.022262
Ni	      6.08612     12.16242     -6.24843         0.119186      0.109905      0.042190
Ni	     14.44908     10.22793     -4.31871         0.069080      0.060185     -0.021654
Ni	     14.36771     14.41390     -8.49888         0.076072      0.036406     -0.070341
Ni	      6.00930     10.06781     -0.20325         0.114308      0.050330     -0.070598
Ni	      6.10342     14.09623     -4.23404         0.012286     -0.004312     -0.196328
Ni	     14.48135     12.19755     -2.33829         0.066186      0.023467     -0.011287
Ni	     14.37444     16.37728     -6.52929         0.069372      0.070936     -0.019634
O	      3.89576      4.23526     -2.28097         0.162503     -0.131646      0.137070
O	      3.78064      8.43805     -6.45722         0.018625     -0.170187      0.922587
O	     12.44827      6.21472     -4.24816         0.064821     -0.134160      0.146390
O	     12.36033     10.40226     -8.43956         0.065100     -0.131791      0.126315
O	      3.89535      6.18371     -0.27014         0.170675     -0.125462      0.109305
O	      3.82727     10.39487     -4.46905         0.138972     -0.151131      0.123327
O	     12.44541      8.19470     -2.27747         0.071770     -0.144683      0.136525
O	     12.34032     12.38856     -6.47341         0.024801     -0.130049      0.123342
O	      3.90141      8.15789      1.71309         0.241929     -0.107387      0.113611
O	      3.82665     12.34501     -2.50255         0.075962     -0.920571      0.176652
O	     12.45723     10.15873     -0.30268         0.061937     -0.148358      0.141836
O	     12.35035     14.34952     -4.48450         0.075748     -0.132392      0.124657
O	      5.87529     10.12103      1.68216         0.099969     -0.116608      0.151337
O	      6.04492      8.27022     -8.26239        -0.262265     -0.189929      0.165661
O	     14.67457      6.34261     -6.34495        -0.087162     -0.122746      0.123532
O	     14.59227     16.43692     -4.61376        -0.148672     -0.102789      0.106238
O	      5.88888      6.22187     -2.28370         0.099556     -0.150930      0.134107
O	      6.04872     10.27874     -6.33357         0.045139     -0.164650      0.115734
O	     14.51046      8.34291     -4.39523         0.017369     -0.142497      0.141278
O	     14.59366     12.50211     -8.55746        -0.151027     -0.108454      0.105740
O	      5.89074      8.17161     -0.25812         0.088517     -0.130525      0.119607
O	      5.88902     12.19624     -4.32297         0.248009     -0.113808      0.151129
O	     14.67067     10.28808     -2.40335        -0.077895     -0.114092      0.120071
O	     14.45217     14.50048     -6.62312        -0.011547     -0.140708      0.142377
O	      3.99264      5.96954     -4.00171        -0.076932      0.178504     -0.162459
O	      4.24542     10.19169     -8.23063         0.142493      0.738607      0.014226
O	     12.35821      8.01604     -6.07541        -0.074522      0.152049     -0.134228
O	     12.35664     12.22264    -10.26445        -0.078665      0.127037     -0.132558
O	      3.99892      7.95877     -1.99964        -0.090129      0.160689     -0.152802
O	      4.22355     12.17494     -6.22545        -0.176220      0.096831     -0.178498
O	     12.34719     10.02396     -4.08083        -0.073325      0.124534     -0.151058
O	     12.29943     14.18964     -8.31216        -0.075063      0.144085     -0.100836
O	      3.99519      9.89700     -0.08246        -0.097049      0.134395     -0.163632
O	      4.24150     14.10717     -4.27406         0.132573     -0.042949     -0.816187
O	     12.39430     11.97089     -2.10705        -0.060727      0.142679     -0.143481
O	     12.32231     16.18815     -6.30281        -0.082370      0.130874     -0.136491
O	      6.36688      7.57017      4.19189         0.043954      0.169518     -0.142125
O	      6.19515      6.02500     -6.02059         0.008235      0.134855     -0.140096
O	     14.53386      9.91532      1.91284        -0.020031      0.169879     -0.158298
O	     14.30460      8.14291     -8.14365        -0.008270      0.173238     -0.168765
O	      6.34450      3.66552      0.29003         0.107178      0.160273     -0.302113
O	      6.20354      8.00823     -4.06693         0.027460      0.124946     -0.137076
O	     14.53849      5.97895     -2.03795        -0.023418      0.157282     -0.158758
O	     14.26614     10.12061     -6.18146        -0.009431      0.180792     -0.173105
O	      6.37984      5.66984      2.28287         0.058524      0.216882     -0.139415
O	      6.06823      9.98395     -2.10407         0.032694      0.122592     -0.113529
O	     14.48921      7.95476     -0.06535        -0.021133      0.172517     -0.178569
O	     14.29723     12.09436     -4.19934        -0.012386      0.162055     -0.181062
O	     16.44377      6.24731     -4.31611        -0.014707     -0.180310      0.153910
O	     16.43642     10.55929     -8.58682        -0.063901     -0.234563      0.238789
O	      8.34354      4.09490     -2.13550         0.010059     -0.155119      0.173968
O	      8.24302      8.23302     -6.26446         0.023800     -0.160935      0.199449
O	     16.44875      8.25533     -2.28859        -0.015558     -0.147264      0.165263
O	     16.38929     12.46166     -6.60961        -0.045524     -0.196667      0.244079
O	      8.36161      6.06115     -0.15272         0.018065     -0.157364      0.158616
O	      8.20061     10.20179     -4.27890         0.002113     -0.185572      0.143467
O	     16.46135     10.22682     -0.37094        -0.014826     -0.153295      0.151855
O	     16.39066     14.49481     -4.57697        -0.049885     -0.254264      0.199646
O	      8.21781      8.03193      1.83387         0.014994     -0.159186      0.145794
O	      8.17291     12.14923     -2.30273        -0.018070     -0.150366      0.179421
O	      2.03436      4.24288     -0.31104         0.092024     -0.158447      0.169816
O	      1.80560      8.45145     -4.48426         0.195327     -0.152739      0.060354
O	     10.36190      6.14630     -2.20733         0.064842     -0.159663      0.156280
O	     10.24784     10.22772     -6.39807         0.108623     -0.118525      0.118070
O	      1.87649      6.17198      1.70732         0.133293     -0.170441      0.133324
O	      1.96732     10.43919     -2.55514         0.057270     -0.119604      0.153999
O	     10.35128      8.11718     -0.22303         0.064857     -0.157949      0.154541
O	     10.22821     12.31111     -4.30174         0.112977     -0.163145      0.088582
O	      1.87767      2.24334     -2.23474         0.134372     -0.141937      0.161699
O	      1.80522     12.37131     -0.56071         0.202183     -0.111518      0.150545
O	     10.34989     10.07900      1.74188         0.062644     -0.142745      0.148939
O	     10.24703     14.25972     -2.44104         0.074792     -0.127449      0.137906
O	      0.13862      4.01362     -2.04775        -0.132774      0.137929     -0.143818
O	      0.03995      8.29791     -6.32447        -0.120034      0.176380     -0.192149
O	      8.17207      5.89271     -3.92076        -0.036402      0.142843     -0.129865
O	      8.02971     10.04821     -8.09350         0.065200      0.109244     -0.101029
O	      0.13819      5.97998     -0.06808        -0.108117      0.147282     -0.133446
O	      0.07181     10.27544     -4.33590        -0.144457      0.156259     -0.149285
O	      8.16698      7.86802     -1.94457        -0.034881      0.121616     -0.130973
O	      8.02268     12.01580     -6.08659         0.096536      0.101666     -0.108141
O	      0.13658      7.97060      1.88645        -0.194505      0.123832     -0.136534
O	      0.07026     12.22322     -2.38627        -0.145161      0.162779     -0.167568
O	      8.15822      9.82789      0.01435        -0.025851      0.124171     -0.130981
O	      8.00450     13.95896     -4.11047         0.062301      0.101248     -0.127835
O	      2.12595      9.90477      1.90311        -0.124233      0.194850     -0.118482
O	      1.92919      8.22207     -8.21029         0.179682      0.224327     -0.225087
O	     10.28506     11.90725     -0.08525        -0.096461      0.134442     -0.137387
O	     10.20080     16.10139     -4.27588        -0.087176      0.144804     -0.149242
O	      2.14411      5.97308     -2.02647        -0.108963      0.170496     -0.175365
O	      1.92346     10.18524     -6.25335        -0.114806      0.148402     -0.144935
O	     10.27970      7.96660     -4.02233        -0.085235      0.143263     -0.156112
O	     10.20306     12.13299     -8.32998        -0.084645      0.161562     -0.088953
O	      2.14247      7.94126     -0.03958        -0.108763      0.132866     -0.194527
O	      2.08865     12.19483     -4.30520        -0.222452      0.135423     -0.127946
O	     10.28349      9.94191     -2.05193        -0.097864      0.150482     -0.139580
O	     10.18437     14.23403     -6.22332        -0.066046      0.123765     -0.122389
