# total energy = -831.08740334 eV
 
CRYSTAL
PRIMVEC
0.003473 5.908624 5.912866 
16.651830 4.010874 -4.004232 
-0.165806 8.328692 -8.334044 
PRIMCOORD
176 1
Li	      8.24218      2.08826     -2.02330         0.031006      0.005723     -0.005832
Li	      8.18722      6.13306     -6.11939         0.018068      0.031146     -0.035667
Li	      8.14245      4.10088     -0.14210         0.043372      0.003278     -0.006331
Li	      8.23389      8.10379     -4.15597         0.017542      0.026692     -0.035318
Li	      0.30392      2.19779      1.53671         0.014321      0.025333     -0.048629
Li	      8.25935      5.96952      1.85306        -0.000879      0.006450      0.001760
Li	      8.18240     10.07053     -2.19680         0.025717      0.034181     -0.029901
Li	      0.30168      4.37749      3.74950         0.010140      0.060299     -0.037969
Li	     10.39436      3.99949     -2.00932         0.019784     -0.004294      0.003520
Li	     10.31004      8.12986     -6.14934         0.002946     -0.003559      0.000907
Li	     10.41138      5.96342     -0.05479         0.018091     -0.000696      0.001493
Li	     10.30638     10.10902     -4.19153         0.002604     -0.000143      0.001252
Li	     10.35802      7.92842      1.91954         0.023332     -0.010309      0.008615
Li	     10.30027     12.06813     -2.21023         0.005707     -0.003303      0.003781
Li	      3.64616      6.11904     -5.86106        -0.047884      0.048348      0.021080
Li	     12.46306      9.96683      1.85592         0.009895      0.002017      0.000706
Li	     12.39132     14.14379     -2.32562         0.006416     -0.003634      0.008697
Li	     12.52152      6.04228     -2.09769        -0.005157      0.009278     -0.013717
Li	     12.38967     10.21013     -6.27253         0.017529     -0.002563     -0.002310
Li	      3.77200      9.84251     -2.25351        -0.002846     -0.038969     -0.012826
Li	     12.50360      8.01535     -0.12916        -0.001849      0.007967     -0.008917
Li	     12.38789     12.18355     -4.29164         0.009405     -0.001863      0.005075
Li	      6.07107      8.04816     -6.02470        -0.015826      0.011978     -0.033798
Li	     14.61384      5.98567     -4.07939        -0.001073     -0.000972     -0.001741
Li	     14.67288     10.12913     -8.15548        -0.027900     -0.032256      0.032682
Li	      6.09363      9.99015     -4.13123        -0.003393     -0.007243      0.000836
Li	     14.58970      8.01720     -2.10024         0.004684      0.000033     -0.005288
Li	     14.62916     12.10996     -6.19986        -0.023460     -0.043358      0.030342
Li	      5.86110      7.63407      2.23577        -0.016167     -0.072095      0.047415
Li	      6.11581     11.97345     -2.12688         0.024308      0.040788     -0.002856
Li	     14.59789      9.98932     -0.07220         0.001289      0.007627      0.005456
Li	     14.65314     14.06233     -4.19656        -0.048089     -0.020748      0.030909
Ni	     -0.02164      8.08695      3.73118        -0.029757      0.011543      0.321887
Ni	     -0.07818     12.27727     -0.47083        -0.000562      0.056865     -0.006998
Ni	      8.25434      3.99078     -3.98348        -0.052558     -0.049919      0.063746
Ni	      8.25715      8.13192     -8.11016        -0.264466     -0.101376     -0.005204
Ni	     -0.01859      4.18307     -0.23656        -0.052345     -0.068963     -0.018293
Ni	     -0.08060      8.33740     -4.41001         0.025756     -0.011512     -0.058606
Ni	      8.27427      5.95964     -2.01477        -0.090990     -0.047978      0.044473
Ni	      8.21300     10.10735     -6.16297         0.007489     -0.075718      0.064451
Ni	     -0.04133      6.14290      1.73133        -0.019646     -0.278494      0.051504
Ni	     -0.05763     10.25869     -2.39204        -0.046005      0.014046     -0.019370
Ni	      8.26145      7.92918     -0.05045        -0.060133     -0.066031      0.048441
Ni	      8.20735     12.07510     -4.18524         0.012854      0.002760      0.093402
Ni	      2.02538      4.12316     -2.15657        -0.175177     -0.144520      0.098990
Ni	      1.91900      8.31939     -6.36215         0.175805     -0.083261     -0.237834
Ni	     10.36447      6.06003     -4.08900         0.023962      0.007015      0.001782
Ni	     10.27552     10.24104     -8.26214         0.005961     -0.019720     -0.013103
Ni	      2.01931      6.10413     -0.19014        -0.139088      0.083712      0.080585
Ni	      1.92735     10.28863     -4.38851         0.010624     -0.062015     -0.051481
Ni	     10.36757      8.03307     -2.11567         0.020928      0.004711     -0.011866
Ni	     10.28967     12.21954     -6.30262        -0.044151     -0.003999      0.005917
Ni	      2.04331      8.04825      1.80359         0.037074     -0.224119      0.105474
Ni	      1.94820     12.25361     -2.42835        -0.134298      0.295764      0.080436
Ni	     10.36391     10.00163     -0.14641         0.018942      0.006278     -0.013110
Ni	     10.30380     14.18037     -4.32819        -0.089966      0.003607      0.030378
Ni	      4.07012      9.99710      1.82329        -0.053981      0.213382      0.266195
Ni	      3.98389      8.26829     -8.26123        -0.237026      0.389106     -0.714410
Ni	     12.42965      6.13639     -6.13228         0.098865      0.025388     -0.010377
Ni	     12.35388     10.30365    -10.29929         0.083150      0.023974     -0.016416
Ni	      4.02886      6.08175     -2.13972        -0.192586     -0.250388      0.089835
Ni	      3.96730     10.24278     -6.31036        -0.084452      0.060687      0.274740
Ni	     12.42479      8.10803     -4.16213         0.124620      0.005597     -0.015421
Ni	     12.35750     12.27580     -8.33567         0.096856      0.014747      0.001235
Ni	      4.05867      8.03823     -0.15320        -0.035586     -0.127099     -0.192757
Ni	      3.99836     12.23806     -4.35438        -0.045830      0.084074     -0.148559
Ni	     12.43167     10.07625     -2.19256         0.099673      0.015858     -0.014824
Ni	     12.38851     14.25417     -6.37221        -0.005948     -0.015720     -0.013775
Ni	      6.08155      6.12308     -4.14086         0.067258      0.037165      0.002625
Ni	      6.06016     10.20243     -8.22098         0.204455     -0.170884     -0.080897
Ni	     14.52069      8.25833     -6.28285         0.233554      0.024833      0.010910
Ni	     14.47286     12.41848    -10.45874         0.061230      0.019248     -0.065613
Ni	      6.07807      8.08282     -2.18568         0.067690     -0.006085     -0.025011
Ni	      6.11875     12.13863     -6.20510         0.169128      0.106917      0.080105
Ni	     14.52682     10.23995     -4.32670         0.175531     -0.007104     -0.024467
Ni	     14.45560     14.40025     -8.49055         0.066823      0.041583     -0.082225
Ni	      6.07922     10.05975     -0.20710         0.063964      0.024439     -0.027951
Ni	      6.12482     14.08432     -4.21815        -0.196717      0.012087      0.147840
Ni	     14.54428     12.19232     -2.33359        -0.057953      0.068081     -0.055132
Ni	     14.44250     16.36782     -6.51691         0.071835      0.108563     -0.026446
O	      3.90556      4.20445     -2.22221         1.588230      0.224771     -0.228149
O	      3.78978      8.28855     -6.40070        -0.096951     -0.057328      1.533193
O	     12.50805      6.22009     -4.24079         0.043317     -0.156791      0.140320
O	     12.40802     10.38542     -8.41402         0.058163     -0.126856      0.132258
O	      3.90231      6.17302     -0.26561         1.269226      0.169966     -0.163510
O	      3.80534     10.35153     -4.42578         0.143009     -0.179712      0.097255
O	     12.51404      8.18419     -2.27297         0.040523     -0.143427      0.162937
O	     12.40109     12.36550     -6.44674         0.057939     -0.134723      0.130956
O	      4.08725      8.14540      1.70009        -0.161914     -0.167834      0.153511
O	      3.82418     12.28558     -2.44062         0.049319     -0.565754      0.193104
O	     12.50747     10.15397     -0.30202         0.039759     -0.150320      0.144983
O	     12.39154     14.32460     -4.46583         0.087256     -0.128977      0.104821
O	      5.98536     10.11960      1.69081         0.100361     -0.129756      0.090028
O	      5.91406      8.25914     -8.22425         1.473215     -0.086003      0.056975
O	     14.67952      6.35179     -6.32276        -0.059724     -0.167327      0.098714
O	     14.66847     16.41789     -4.60492        -0.184140     -0.087258      0.076645
O	      5.95616      6.20271     -2.26073         0.184823     -0.083302      0.103769
O	      6.08377     10.24878     -6.25369         0.025302     -0.125798      0.063433
O	     14.71424      8.34379     -4.38767        -0.110922     -0.131230      0.138077
O	     14.65822     12.48521     -8.55062        -0.155549     -0.075963      0.096303
O	      5.97622      8.16652     -0.27629         0.105603     -0.110238      0.141524
O	      6.09873     12.17836     -4.28094         0.010747     -0.121979      0.090655
O	     14.68270     10.28150     -2.42606        -0.065727     -0.114559      0.141876
O	     14.51386     14.48394     -6.60764         0.069214     -0.174557      0.173159
O	      4.06818      5.94302     -3.99142        -0.018951      0.084855     -0.178801
O	      4.08064     10.09053     -8.12930         0.195801      0.534323     -0.151441
O	     12.42464      8.03116     -6.05156        -0.096216      0.115645     -0.136960
O	     12.38440     12.19751    -10.22328        -0.071977      0.136324     -0.145869
O	      4.06196      7.93432     -2.00819        -0.001526      0.270743     -0.096289
O	      4.28464     12.14056     -6.19918        -0.193019      0.033081     -0.173094
O	     12.42611      9.99946     -4.08760        -0.069787      0.148058     -0.129727
O	     12.36374     14.17371     -8.29083        -0.052212      0.148970     -0.104285
O	      4.06462      9.92015     -0.05609         0.025181      0.171608     -0.231990
O	      4.26642     14.09741     -4.20501         0.380580     -0.179368     -1.096415
O	     12.41242     11.96471     -2.10967        -0.082679      0.133382     -0.135295
O	     12.35070     16.14569     -6.28056        -0.047261      0.144568     -0.150217
O	      6.39111      7.57654      4.13359         0.004094      0.170697     -0.077976
O	      6.15293      6.04043     -6.03051         0.021487      0.098136     -0.121059
O	     14.44081      3.99427     -3.98665        -0.032248      0.136354     -0.159496
O	     14.33927      8.14529     -8.13442        -0.037636      0.179204     -0.230605
O	      6.34148      3.68901      0.30604        -0.023257      0.238298     -0.211775
O	      6.26717      7.99807     -4.05681         0.039303      0.112540     -0.105028
O	     14.57846      5.97114     -2.03995        -0.029226      0.162374     -0.124733
O	     14.34735     10.12077     -6.18604        -0.046438      0.201099     -0.194312
O	      6.39473      5.65913      2.29979         0.109488      0.148956     -0.271431
O	      6.12797      9.97578     -2.10653         0.016988      0.137127     -0.102644
O	     14.55302      7.95923     -0.06727        -0.028828      0.119624     -0.137597
O	     14.34093     12.09529     -4.20610        -0.021795      0.216638     -0.160293
O	     16.50892      6.36939     -4.33696        -0.050017     -0.185338      0.090578
O	     16.49949     10.53439     -8.57509        -0.072498     -0.214528      0.239743
O	      8.41320      4.08930     -2.11313         0.003161     -0.135789      0.142684
O	      8.27495      8.21374     -6.23754         0.044949     -0.136889      0.218452
O	     16.51190      8.28310     -2.38481        -0.034994     -0.088127      0.215036
O	     16.46595     12.43723     -6.59597        -0.053820     -0.188034      0.251530
O	      8.42056      6.06262     -0.14755         0.011965     -0.148941      0.147462
O	      8.28213     10.19343     -4.27707         0.001407     -0.166974      0.161788
O	     16.49573     10.25828     -0.44340        -0.095426     -0.221296      0.164840
O	     16.47173     14.47223     -4.55755        -0.030738     -0.264216      0.167122
O	      8.28949      8.01727      1.83093         0.004184     -0.132818      0.138226
O	      8.25409     12.15608     -2.28669         0.039990     -0.218993      0.140359
O	      1.82941      4.23784     -0.29038        -0.366844     -0.999062      0.788705
O	      1.78545      8.41372     -4.49783         0.158887     -0.109080      0.189695
O	     10.42916      6.14023     -2.19909         0.037912     -0.141642      0.150682
O	     10.33094     10.31995     -6.36342         0.051467     -0.124331      0.142952
O	      1.80414      6.17971      1.67369        -0.360639     -0.697805      1.128712
O	      1.94823     10.41428     -2.54224         0.030365     -0.225893      0.189713
O	     10.41622      8.10927     -0.21163         0.034824     -0.150484      0.127083
O	     10.30329     12.28426     -4.39924         0.071439     -0.150377      0.112558
O	      1.81690      2.25613     -2.23842        -0.363466     -0.985295      0.696988
O	      1.81177     12.36045     -0.55863         0.227020     -0.111548      0.114953
O	     10.41268     10.06170      1.75014         0.035466     -0.135438      0.146958
O	     10.32169     14.22617     -2.42735         0.118897     -0.088752      0.140219
O	      0.10149      4.05379     -2.10097        -1.367300     -0.026473      0.023118
O	      0.03468      8.28579     -6.31168        -0.177112      0.141914     -0.088672
O	      8.23678      5.88628     -3.91617        -0.071964      0.140692     -0.137323
O	      8.18233     10.01191     -8.04750        -0.049050      0.211229     -0.134813
O	      0.10261      6.05727     -0.14241        -1.143724      0.031750     -0.021360
O	      0.04050     10.23193     -4.32777        -0.109974      0.120050     -0.081441
O	      8.23859      7.86396     -1.94741        -0.075859      0.140521     -0.133504
O	      8.08470     12.02387     -6.10211         0.038663      0.112753     -0.144165
O	     -0.02987      7.99077      1.87159         0.300850      0.166337     -0.167688
O	      0.05668     12.17529     -2.36873        -0.087596      0.109468     -0.162735
O	      8.22173      9.83629      0.01946        -0.112835      0.134491     -0.147340
O	      8.05848     13.98004     -4.09196         0.137939      0.079967     -0.106771
O	      2.22676      4.00651     -3.99515         0.301850      0.816591     -0.971993
O	      2.11310     14.12899     -2.32188        -1.513572     -0.162289      0.153460
O	     10.33736      5.99407     -5.98659        -0.098924      0.122694     -0.118992
O	     10.24664     10.16751    -10.15972        -0.072338      0.145918     -0.136165
O	      2.18479      5.97941     -2.04334         0.442034      0.961881     -1.081669
O	      1.95505     10.15744     -6.24202        -0.141638      0.177207     -0.097960
O	     10.34787      7.96920     -4.02164        -0.116043      0.114257     -0.108539
O	     10.26448     12.14744     -8.19712        -0.082248      0.122868     -0.128502
O	      2.22053      7.94406     -0.06576         0.328902      1.088811     -0.749955
O	      1.96356     12.14446     -4.27220        -0.102829      0.155351     -0.159056
O	     10.34071      9.93118     -2.04971        -0.096852      0.120679     -0.125743
O	     10.23374     14.11423     -6.21964        -0.051253      0.134436     -0.162966
