# total energy = -842.15655549 eV
 
CRYSTAL
PRIMVEC
-0.002733 5.918810 5.919854 
16.450365 4.010251 -4.018655 
-0.205659 8.419670 -8.420385 
PRIMCOORD
177 1
Li	      8.40985      8.03314      3.63105        -0.003712      0.026943     -0.019679
Li	      8.26477      6.38899     -6.38660        -0.013008      0.018811     -0.018891
Li	      0.07966      4.50219     -4.32830         0.000568      0.025826     -0.024854
Li	      8.40623      4.25836     -0.13642         0.000667      0.031830     -0.026786
Li	      8.27379      8.37328     -4.43040        -0.012279      0.014088     -0.019538
Li	      0.19151      2.09126      1.69367         0.008988      0.028254     -0.029181
Li	      8.27730     10.35178     -2.45923        -0.011255      0.016609     -0.015515
Li	      0.20914      4.22856      3.86447         0.008692      0.043073     -0.026908
Li	      0.06575      8.22404     -0.55437        -0.006209      0.008411     -0.028000
Li	      3.90374      1.89221     -1.88389        -0.008654      0.002138      0.001672
Li	      3.78949     12.03045     -0.23506         0.003907     -0.000666      0.012493
Li	     12.13592      3.92219     -3.90638         0.007634     -0.005889      0.007624
Li	     12.02863      8.10587     -8.10616         0.004112     -0.008364      0.003405
Li	      3.88272      3.86427      0.07599        -0.007679     -0.012294     -0.003695
Li	      3.80455      8.13742     -4.14197         0.025855     -0.020032      0.009430
Li	     12.13238      5.88709     -1.95259         0.003928     -0.008412      0.009081
Li	     12.04354     10.06029     -6.13272         0.004952     -0.007214      0.007933
Li	      3.89291      5.77877      2.07109        -0.027797     -0.004776      0.011301
Li	      3.81762     10.05071     -2.18048         0.012923     -0.011443      0.001321
Li	     12.13453      7.84871      0.03394         0.010474     -0.005832     -0.000179
Li	     12.01900     12.04978     -4.15158         0.012494     -0.009224      0.007084
Li	      6.15969      3.98289     -2.00109        -0.023618     -0.011518      0.020875
Li	      6.03079      8.18517     -6.21287        -0.010971     -0.026134      0.018677
Li	     14.42517      5.93970     -4.04058        -0.019743     -0.018192      0.012445
Li	     14.31408     10.18619     -8.15078        -0.029288     -0.025225      0.018080
Li	      6.18457      5.96036      0.02741        -0.033087     -0.012824      0.014031
Li	      6.00369     10.16812     -4.25725        -0.014693     -0.029402      0.024134
Li	     14.39344      7.96849     -2.05243        -0.005103     -0.017920      0.022447
Li	     14.30946     12.09951     -6.24960        -0.024297     -0.021937      0.025692
Li	      6.18204      7.85476      1.93643        -0.030378     -0.015499      0.022770
Li	      5.99899     12.14580     -2.26925        -0.014351     -0.029057      0.031748
Li	     14.42524      9.95025     -0.01572        -0.003093     -0.015818      0.014495
Li	     14.25852     14.12603     -4.28187        -0.021438     -0.022679      0.024723
Ni	      0.04313      2.05215     -2.05045        -0.046899     -0.050279      0.020932
Ni	     -0.11503     12.22833     -0.40381        -0.063680     -0.050726      0.007448
Ni	      8.22736      4.09153     -4.08474        -0.045453      0.003540      0.028948
Ni	      8.15378     14.18069     -2.34892        -0.113215     -0.006155      0.019789
Ni	      0.00571      4.06776     -0.10757        -0.042627      0.034956      0.030669
Ni	     -0.08355      8.24154     -4.29446        -0.071791     -0.032316      0.036512
Ni	      8.22608      6.05450     -2.12214        -0.077141     -0.022158     -0.009687
Ni	      8.14254     10.25109     -6.30502        -0.033869     -0.055698      0.040288
Ni	      0.01251      6.02063      1.86362        -0.024974     -0.035551      0.003549
Ni	     -0.05940     10.23696     -2.33044        -0.128947      0.021154      0.014578
Ni	      8.25457      8.00595     -0.11505        -0.069131     -0.045495      0.032235
Ni	      8.11397     12.23171     -4.34352        -0.033059     -0.026166      0.036006
Ni	      1.99376      4.13833     -2.15986         0.049215      0.032332     -0.017713
Ni	      1.90110      8.33859     -6.36083         0.018459     -0.057298     -0.055329
Ni	     10.21745      6.13079     -4.16274         0.001645     -0.000989      0.009663
Ni	     10.12187     10.32639     -8.36879         0.013658     -0.016260     -0.009311
Ni	      1.99375      6.10724     -0.19293         0.035010      0.014746      0.003951
Ni	      1.90903     10.28763     -4.38089         0.002131      0.018392      0.015115
Ni	     10.21968      8.09975     -2.18446         0.007760     -0.003597     -0.001855
Ni	     10.14276     12.30946     -6.39819         0.053320      0.054106     -0.006779
Ni	      1.99402      8.08157      1.78793         0.018843     -0.018638     -0.004003
Ni	      1.91991     12.28822     -2.41133         0.015467      0.032800      0.055297
Ni	     10.22084     10.07422     -0.21513         0.025911      0.007823     -0.006912
Ni	     10.12265     14.28635     -4.43775        -0.029778      0.004502     -0.031444
Ni	      3.95798      4.20497     -4.20509         0.055002      0.003288      0.003864
Ni	      3.88952      8.39209     -8.36566         0.067890      0.006045      0.006885
Ni	     12.18644     12.10860     -0.28078         0.077785     -0.012616      0.005458
Ni	     12.09127     16.31340     -4.48777         0.072139      0.015453     -0.001058
Ni	      3.96884      6.16481     -2.22131         0.088883      0.015397     -0.015788
Ni	      3.85875     10.35836     -6.42570         0.070430     -0.020591     -0.001096
Ni	     12.18402      8.15977     -4.21978         0.072883      0.023270     -0.002263
Ni	     12.08931     12.37208     -8.43486         0.049548     -0.001763     -0.004252
Ni	      3.95745      8.14546     -0.25374         0.051693     -0.004079     -0.004907
Ni	      3.87014     12.33430     -4.45762         0.045798     -0.002753      0.007495
Ni	     12.18711     10.13935     -2.24811         0.096773     -0.007024     -0.002060
Ni	     12.12565     14.33725     -6.45512         0.067029     -0.018005     -0.011466
Ni	      6.07809      6.21289     -4.24421         0.121795      0.060732     -0.016975
Ni	      5.97679     10.42333     -8.44024         0.135868      0.004240     -0.055321
Ni	     14.30400      8.22353     -6.25037         0.165723      0.041751     -0.057510
Ni	     14.19512     12.44544    -10.48242         0.140215      0.017636     -0.060727
Ni	      6.08104      8.18388     -2.26375         0.128297      0.023106     -0.054716
Ni	      5.94485     12.40541     -6.48830         0.172509      0.048256     -0.041668
Ni	     14.30310     10.19064     -4.29219         0.159174      0.074962     -0.024790
Ni	     14.19408     14.40220     -8.49660         0.126959      0.076471     -0.030094
Ni	      6.08030     10.15540     -0.29460         0.134862      0.049199     -0.063425
Ni	      5.95599     14.35821     -4.48857         0.173740      0.066299     -0.017930
Ni	     14.32840     12.16421     -2.30186         0.146576      0.040878     -0.057993
Ni	     14.17740     16.39386     -6.52673         0.132608      0.025823     -0.020342
O	      3.89991      4.26265     -2.28036         0.103189     -0.131376      0.106636
O	      3.81274      8.44579     -6.47535         0.128413     -0.109764      0.164966
O	     12.10959      6.24979     -4.27351         0.118485     -0.119172      0.100655
O	     12.01764     10.44198     -8.49955         0.110154     -0.085045      0.122581
O	      3.89294      6.22950     -0.30765         0.115399     -0.108904      0.138498
O	      3.80077     10.30945     -4.51040         0.111981     -0.080125      0.137768
O	     12.11636      8.21351     -2.30564         0.102576     -0.113780      0.112394
O	     12.05385     12.44639     -6.52844         0.125100     -0.170705      0.128280
O	      3.88659      8.21888      1.65523         0.124807     -0.116212      0.113492
O	      3.81671     12.42895     -2.41614         0.135335     -0.168244      0.081674
O	     12.11963     10.20447     -0.34450         0.093920     -0.113035      0.119278
O	     12.12939     14.41070     -4.57628         0.162011     -0.131065      0.158996
O	      6.12373      4.31556     -4.31420         0.003308     -0.138807      0.130616
O	      5.84252      8.47848     -8.46011         0.175177     -0.102640      0.122858
O	     14.37175      6.31405     -6.31627        -0.021414     -0.130153      0.140239
O	     14.27455     16.46289     -4.63392        -0.062326     -0.104158      0.103723
O	      6.09116      6.26815     -2.32904         0.063315     -0.092906      0.087142
O	      6.04227     10.50348     -6.55239         0.005734     -0.112910      0.140794
O	     14.36161      8.29044     -4.34770        -0.026133     -0.139147      0.135578
O	     14.25073     12.50941     -8.57756         0.002931     -0.138066      0.128085
O	      6.11992      8.25220     -0.36478         0.013818     -0.128827      0.145594
O	      5.98681     12.46604     -4.58070         0.018560     -0.151260      0.131764
O	     14.39271     10.25350     -2.38023        -0.068120     -0.112124      0.115548
O	     14.08013     14.45215     -6.56717         0.204528     -0.093615      0.090832
O	      4.07262      6.08819     -4.11572        -0.092738      0.141970     -0.177909
O	      3.95769     10.26232     -8.31200        -0.085694      0.169911     -0.136769
O	     12.29233      8.05920     -6.10988        -0.112430      0.140264     -0.126754
O	     12.18553     12.28554    -10.30531        -0.112551      0.150127     -0.154457
O	      4.07013      8.04374     -2.14121        -0.101346      0.179081     -0.133571
O	      3.96122     12.21651     -6.44187        -0.111193      0.143343     -0.092244
O	     12.29944     10.05080     -4.11752        -0.107658      0.136440     -0.148200
O	     12.17422     14.27018     -8.32934        -0.089990      0.120113     -0.205387
O	      4.07353     10.03577     -0.17624        -0.101373      0.145725     -0.149588
O	      3.98250     14.31552     -4.30016        -0.142828      0.083002     -0.180253
O	     12.32023     12.03030     -2.17720        -0.108913      0.140369     -0.133752
O	     12.16631     16.20038     -6.37141        -0.090064      0.216301     -0.153795
O	      6.21493      1.90254     -1.90016         0.005986      0.138869     -0.153467
O	      6.11300      6.12606     -6.12736         0.010604      0.143752     -0.163303
O	     14.21802      3.93213     -3.93825        -0.017926      0.167220     -0.155224
O	     14.31704      8.13605     -8.13429        -0.014134      0.153981     -0.142233
O	      6.24164      3.88969      0.04589         0.011454      0.160878     -0.137900
O	      6.10593      8.10034     -4.15324         0.010746      0.147166     -0.147080
O	     14.40050      5.90829     -1.96520        -0.008394      0.156847     -0.157085
O	     14.11760     10.10180     -6.16798        -0.017164      0.142381     -0.164398
O	      5.98702      5.85903      2.04992        -0.011986      0.146815     -0.190899
O	      6.08793     10.07077     -2.18492         0.005100      0.156466     -0.145528
O	     14.39174      7.87243      0.01639        -0.018911      0.140016     -0.172304
O	     14.32629     12.07445     -4.19505        -0.008839      0.147619     -0.137171
O	     16.30705      6.24616     -4.22291        -0.027152     -0.202842      0.187382
O	     16.17759     10.40846     -8.50924        -0.043001     -0.163210      0.191151
O	      8.06676      4.18482     -2.20851        -0.004988     -0.196036      0.156590
O	      7.96461      8.37767     -6.41307        -0.012534     -0.137778      0.176741
O	     16.30449      8.15998     -2.24408        -0.008422     -0.181972      0.157258
O	     16.17848     12.42768     -6.46078        -0.047286     -0.203395      0.154488
O	      8.06721      6.15869     -0.29189        -0.030096     -0.169520      0.213552
O	      7.95576     10.36439     -4.43960        -0.006327     -0.155056      0.148749
O	     16.30860     10.13177     -0.32246        -0.029182     -0.179800      0.206655
O	     16.17127     14.36178     -4.49948        -0.026946     -0.166919      0.167793
O	      8.06620      8.17819      1.73390        -0.032290     -0.189106      0.176813
O	      7.93496     12.33185     -2.46689        -0.013234     -0.178542      0.126350
O	      2.04038      4.25236     -0.30769         0.099522     -0.149997      0.149662
O	      1.93246      8.43133     -4.51305         0.096558     -0.136845      0.161180
O	     10.26322      6.24268     -2.30364         0.129410     -0.132571      0.132804
O	     10.18862     10.45584     -6.50790         0.091302     -0.175949      0.151915
O	      2.04275      6.22074      1.67007         0.119154     -0.140926      0.154631
O	      1.96305     10.43613     -2.52260         0.105888     -0.153514      0.149036
O	     10.28936      8.22063     -0.33172         0.093832     -0.144621      0.150166
O	     10.16935     12.42830     -4.54449         0.072369     -0.196998      0.149164
O	      2.06683      2.28372     -2.27770         0.101282     -0.155014      0.153184
O	      1.90469      6.48062     -6.47303         0.151758     -0.121393      0.114826
O	     10.27852      4.27538     -4.28047         0.087441     -0.143178      0.149990
O	     10.16066     14.38665     -2.57274         0.123054     -0.144688      0.208334
O	      0.13115      3.96203     -2.02428        -0.124604      0.104711     -0.117165
O	      0.02954      8.22084     -6.21857        -0.121335      0.160204     -0.094616
O	      8.34369      6.00936     -4.04035        -0.119178      0.113420     -0.121275
O	      8.24636     10.17283     -8.21873        -0.121983      0.106538     -0.104252
O	      0.12696      5.97757     -0.03676        -0.133199      0.116413     -0.117013
O	      0.01689     10.16722     -4.23726        -0.068825      0.110885     -0.121046
O	      8.34711      7.97407     -2.04598        -0.100794      0.127401     -0.110825
O	      8.27379     12.15649     -6.25621        -0.180297      0.108650     -0.096678
O	      0.13147      7.93449      1.94355        -0.136082      0.125080     -0.104814
O	      0.02838     12.14323     -2.31307        -0.103867      0.120507     -0.152442
O	      8.35399      9.93418     -0.09009        -0.128846      0.108436     -0.109498
O	      8.12300     14.14038     -4.25252        -0.118452      0.106101     -0.103233
O	      1.94227      4.01461     -4.01413        -0.113750      0.162206     -0.143259
O	      2.01860      8.24960     -8.24470        -0.243098      0.085389     -0.085229
O	     10.15929     11.93070     -0.09781        -0.116148      0.141083     -0.145641
O	     10.07952     10.22102    -10.22172        -0.128470      0.187330     -0.133151
O	      2.00166      5.99322     -2.04226        -0.210037      0.105937     -0.134609
O	      1.84703     10.18098     -6.23220        -0.121856      0.151569     -0.125167
O	     10.16099      7.98559     -4.04001        -0.120006      0.141554     -0.146325
O	     10.07613     12.17792     -8.24951        -0.130612      0.147108     -0.148420
O	      1.93725      7.96054     -0.06645        -0.113406      0.148231     -0.143497
O	      1.88210     12.14756     -4.25831        -0.085578      0.128845     -0.164020
O	     10.16704      9.95471     -2.07107        -0.125276      0.147319     -0.139173
O	     10.25199     14.18759     -6.32114        -0.254490      0.083707     -0.125290
