# total energy = -847.25486866 eV
 
CRYSTAL
PRIMVEC
0.002501 5.926613 5.930416 
16.530165 4.002782 -3.998460 
-0.197630 8.374926 -8.379883 
PRIMCOORD
178 1
Li	      8.30907      2.12849     -2.12003        -0.020431      0.026342     -0.019975
Li	      8.12904      6.25771     -6.25603         0.013228      0.015144     -0.017242
Li	      0.03076      6.00723      5.83383        -0.021173      0.017458     -0.000170
Li	     16.16353      8.43343     -8.40468         0.031662     -0.001882      0.000937
Li	      8.28891      4.08365     -0.16194         0.009840      0.014848     -0.020528
Li	      8.15092      8.23924     -4.27802         0.011874      0.017047     -0.016375
Li	      0.00572      2.07674      1.89864        -0.006637      0.000359     -0.017268
Li	     16.31697     10.27294     -6.35118         0.019571      0.009627     -0.013410
Li	      8.30318      6.08786      1.84073         0.001797      0.014480     -0.018265
Li	      8.15816     10.19983     -2.31371         0.012027      0.014563     -0.016320
Li	     16.50142      8.03519     -0.13068         0.007363      0.016788     -0.013541
Li	     16.31324     12.27667     -4.31850         0.024648      0.009974     -0.010677
Li	      2.19729      2.15371     -0.16521        -0.021748     -0.002363     -0.005761
Li	      2.09817      6.41755     -4.39547        -0.021392     -0.011220      0.018397
Li	     10.60849      4.16945     -2.17114         0.046966      0.045502     -0.002024
Li	     10.45901      8.36716     -6.38480         0.016647     -0.013010     -0.001895
Li	      2.22884      4.08414      1.81225        -0.028573      0.016665     -0.000804
Li	      2.11943      8.35697     -2.42236        -0.011728      0.004196      0.021204
Li	     10.48871      6.15213     -0.22089         0.015806      0.001372     -0.003770
Li	     10.63930     10.45398     -4.53673         0.029399      0.015064     -0.018329
Li	      2.22161      6.09725      3.82038        -0.024590      0.003118     -0.003316
Li	      2.07929     10.30772     -0.42201         0.008983     -0.016229      0.004445
Li	     10.56533      8.08079      1.77994         0.015822      0.001534     -0.041661
Li	     10.46143     12.30546     -2.44653         0.016226     -0.000126      0.018033
Li	      6.01613      3.90957     -1.93798         0.026977     -0.004696      0.011162
Li	      5.85943      8.08741     -6.10575         0.042517     -0.010552      0.010303
Li	     14.26811      5.83523     -3.85184        -0.001864     -0.011443      0.006860
Li	      6.00445      5.85789      0.06786         0.023053      0.000335      0.004554
Li	      5.90644     10.05645     -4.12892         0.017883     -0.007746      0.008053
Li	     14.26602      7.82348     -1.87604         0.013087     -0.013626      0.011409
Li	     14.04533     11.98922     -6.02887         0.022614     -0.016721      0.009715
Li	      6.01894      7.85555      2.02268         0.024775     -0.006346      0.007057
Li	      5.89812     12.03391     -2.15367         0.021154     -0.007830      0.003318
Li	     14.27586      9.79759      0.08208         0.004821     -0.008397      0.014711
Ni	     16.47042      6.04888     -6.04392        -0.146298     -0.043037      0.046073
Ni	     16.37839     16.19024     -4.35377        -0.125356     -0.017734      0.147400
Ni	      8.19904      4.08626     -4.08313        -0.134656     -0.035169      0.033573
Ni	      8.14757     14.17993     -2.32721        -0.121498     -0.006536      0.020485
Ni	     16.44496      8.01873     -4.07154        -0.120874     -0.013357      0.063174
Ni	     -0.14183      8.23026     -4.25125        -0.171900     -0.031976     -0.013049
Ni	      8.20285      6.05953     -2.10704        -0.118537     -0.024690      0.051521
Ni	      8.15755     10.21092     -6.27160        -0.129925     -0.032708      0.026731
Ni	     16.44455     10.00147     -2.08062        -0.119489     -0.065742      0.014493
Ni	     -0.13873     10.19312     -2.28255        -0.133435     -0.034449      0.018727
Ni	      8.20273      8.03661     -0.12932        -0.118620     -0.051576      0.028198
Ni	      8.15394     12.18973     -4.29101        -0.138098     -0.029065      0.031677
Ni	      2.06871      4.07394     -2.09588        -0.081330      0.004312     -0.000403
Ni	      1.99189      8.31462     -6.31329        -0.093582     -0.017090     -0.010694
Ni	     10.34495      6.06339     -4.08272        -0.041729      0.005316     -0.006807
Ni	     10.20662     10.27588     -8.32641         0.037136      0.010504      0.202613
Ni	      2.11011      6.04977     -0.11722        -0.140260      0.005419     -0.008892
Ni	      1.99869     10.27874     -4.33770        -0.078096      0.006163     -0.000192
Ni	     10.35700      8.04573     -2.11518        -0.055994      0.000945      0.001617
Ni	     10.20116     12.25568     -6.34278        -0.049853      0.009935     -0.018962
Ni	      2.07289      8.01971      1.86083        -0.076505      0.000031      0.001058
Ni	      1.98145     12.23616     -2.38261        -0.046198     -0.009425      0.004249
Ni	     10.34889     10.01135     -0.12703        -0.043746      0.002206     -0.001719
Ni	     10.19374     14.24597     -4.35450        -0.003146     -0.167813     -0.006272
Ni	      4.03446      4.14908     -4.14792        -0.023052      0.001727     -0.001923
Ni	      3.94660     14.29160     -2.45816        -0.005150      0.010306      0.013446
Ni	     12.33107      6.09772     -6.09407        -0.027922     -0.022803      0.022193
Ni	     12.25084     16.18944     -4.34633         0.343659     -0.295386      0.340941
Ni	      4.03737      6.12881     -2.17600        -0.028209      0.003324      0.007872
Ni	      3.94792     10.35676     -6.39938        -0.005014     -0.018735     -0.015110
Ni	     12.34778      8.07150     -4.12389        -0.012616      0.039938      0.013711
Ni	     12.21678     12.28349     -8.35136         0.009539     -0.006130     -0.026548
Ni	      4.04045      8.10514     -0.19626        -0.026357     -0.006207     -0.002002
Ni	      3.97431     12.31502     -4.41935        -0.024218      0.013636      0.006065
Ni	     12.34772     10.05417     -2.13859        -0.015627     -0.014140     -0.037745
Ni	     12.18040     14.27799     -6.36390        -0.021165     -0.013727      0.020852
Ni	      6.01413      6.21724     -4.24005         0.064420      0.025119     -0.023770
Ni	      5.91768     10.41389     -8.44664         0.137313      0.016194     -0.024370
Ni	     14.29743      8.16122     -6.17050         0.038647      0.051635     -0.028184
Ni	     14.29233     12.31081    -10.33856        -0.059473      0.217736     -0.083876
Ni	      6.01954      8.19261     -2.26307         0.062021      0.024662     -0.025458
Ni	      5.98781     12.37002     -6.45110         0.075811      0.039086     -0.037207
Ni	     14.35095     10.07766     -4.14376        -0.066016     -0.003905      0.004079
Ni	     14.20397     14.32928     -8.39897         0.038214      0.059375     -0.065080
Ni	      6.01581     10.16914     -0.28576         0.066772      0.024682     -0.027011
Ni	      5.94150     14.36222     -4.48697         0.128473      0.028149     -0.022607
Ni	     14.29784     12.10258     -2.22408         0.040911      0.030557     -0.042152
Ni	     14.25174     16.29723     -6.41247        -0.056000      0.013053     -0.066705
O	      4.11189      4.27103     -2.28959         0.121647     -0.105313      0.111050
O	      3.98642      8.48892     -6.52892         0.098136     -0.095858      0.112234
O	     12.37480      6.22599     -4.23222         0.108507     -0.150887      0.119328
O	     12.06992     10.40217     -8.41311        -0.099141      0.073263      0.798527
O	      4.11740      6.24493     -0.31576         0.123036     -0.107769      0.105424
O	      4.03036     10.46018     -4.54366         0.119446     -0.107489      0.098444
O	     12.39008      8.19659     -2.26712         0.118035     -0.123706      0.121227
O	     12.19491     12.42354     -6.51447         0.125751     -0.098027      0.191974
O	      4.11665      8.21731      1.66176         0.119788     -0.110291      0.106992
O	      4.01543     12.43472     -2.55663         0.134065     -0.101596      0.099507
O	     12.37663     10.16231     -0.29207         0.109322     -0.114416      0.150846
O	     12.04515     14.32779     -4.48416        -0.012064     -0.859277     -0.001117
O	      5.90770      4.30512     -4.30299         0.103376     -0.104026      0.104491
O	      5.84935      8.50490     -8.50602         0.062809     -0.111782      0.106648
O	     14.19859      6.21775     -6.21455         0.135358     -0.112772      0.117859
O	     14.37460     10.43682    -10.43208        -0.260749     -0.148921      0.057763
O	      5.90782      6.27751     -2.32245         0.103698     -0.110138      0.099483
O	      5.83660     10.45655     -6.53891         0.078086     -0.120170      0.107183
O	     14.22532      8.16973     -4.23187         0.130663     -0.122289      0.104048
O	     14.11641     12.41296     -8.44763         0.124717     -0.095776      0.188566
O	      5.91106      8.25112     -0.34648         0.107788     -0.102212      0.111005
O	      5.85533     12.44672     -4.53314         0.093620     -0.101408      0.096324
O	     14.22442     10.16288     -2.23597         0.137733     -0.104144      0.126338
O	     14.07068     14.38333     -6.50447         0.118703     -0.114815      0.123198
O	      3.95931      6.00972     -4.03396        -0.092574      0.112326     -0.109227
O	      3.89099     10.22751     -8.26196        -0.106863      0.103610     -0.103261
O	     12.27825      7.94849     -5.97386        -0.109465      0.126548     -0.125418
O	     12.39577     12.15825    -10.22814        -0.186282      0.804881     -0.073346
O	      3.97118      7.98705     -2.05417        -0.099125      0.108357     -0.109720
O	      3.94028     12.21347     -6.27668        -0.110295      0.101546     -0.113150
O	     12.43282      9.95863     -4.02587        -0.199460      0.089816     -0.093482
O	     12.16154     14.14235     -8.22694        -0.108248      0.156941     -0.118573
O	      3.96217      9.96113     -0.07634        -0.089647      0.109942     -0.109789
O	      3.92979     14.17214     -4.31613        -0.124345      0.104054     -0.099883
O	     12.27849     11.90388     -2.01447        -0.106787      0.124879     -0.125116
O	     12.24078     16.12864     -6.19779        -0.129299      0.194855     -1.177108
O	      6.36408      7.84142      4.01425         0.003936      0.159158     -0.158905
O	      6.18433      6.10993     -6.10686         0.000805      0.155121     -0.158210
O	     14.61555      3.86694     -3.81904         0.024180      0.111190     -0.216084
O	     14.39036      8.00616     -7.99983         0.024912      0.199546     -0.202509
O	      6.35918      3.88560      0.05565         0.002477      0.158660     -0.127936
O	      6.19710      8.08185     -4.13208        -0.004893      0.151512     -0.150767
O	     14.58228      5.80587     -1.88292         0.033749      0.177284     -0.143230
O	     14.44645     10.03720     -5.96320         0.030567      0.156679     -0.220448
O	      6.37298      5.86547      2.04456         0.011073      0.142644     -0.156689
O	      6.20264     10.05902     -2.15117        -0.003471      0.152727     -0.153990
O	     14.57015      7.82884      0.08791         0.030217      0.132937     -0.158258
O	     14.44196     11.89749     -4.09648         0.029237      0.226429     -0.154420
O	     16.48581      6.12731     -4.15224         0.020275     -0.159144      0.151153
O	      0.00750      6.36607     -4.40222         0.024470     -0.176432      0.165042
O	      8.12139      4.18097     -2.20024        -0.015955     -0.146968      0.138304
O	      8.06214      8.32895     -6.38292        -0.006975     -0.133590      0.145243
O	     16.42340      8.10898     -2.17658         0.019572     -0.148919      0.142034
O	     16.34964     12.31400     -6.34812         0.037721     -0.165519      0.162030
O	      8.19043      6.14161     -0.21339        -0.009354     -0.130639      0.129949
O	      8.05672     10.30875     -4.38924        -0.015054     -0.136797      0.130298
O	     16.46316     10.08234     -0.18737         0.014355     -0.145559      0.154651
O	     -0.01626     10.32167     -0.41325         0.040378     -0.227833      0.164090
O	      8.13064      8.12914      1.75100        -0.011890     -0.136217      0.149489
O	      8.05800     12.30358     -2.40528        -0.006756     -0.143524      0.127871
O	      1.91249      4.18698     -0.20286         0.101784     -0.162345      0.124937
O	      1.83377      8.41846     -4.35158         0.126569     -0.159965      0.119941
O	     10.22173      6.15007     -2.20771         0.076112     -0.127769      0.143066
O	     10.16076     10.26303     -6.45804         0.084013     -0.112285      0.107362
O	      1.91240      6.12644      1.74965         0.094136     -0.128848      0.154179
O	      1.87331     10.35675     -2.45760         0.090895     -0.160085      0.136910
O	     10.21984      8.13714     -0.22144         0.075884     -0.142946      0.125105
O	     10.15389     12.37759     -4.34200         0.095524     -0.082962      0.095563
O	      1.94719      2.18804     -2.18619         0.108576     -0.141463      0.146047
O	      1.72529     12.27458     -0.47940         0.203890     -0.034590      0.101441
O	     10.21104      4.16458     -4.15442         0.092601     -0.139042      0.131708
O	     10.16736     14.32856     -2.47885         0.106291     -0.137546      0.100482
O	     16.40511      7.95023     -5.96600         0.017390      0.120178     -0.132243
O	     16.22184     12.18454    -10.19840         0.289728      0.135744     -0.044723
O	      8.17241      5.99487     -4.01388        -0.023328      0.119816     -0.120667
O	      8.25860     10.17748     -8.20091        -0.146666      0.115788     -0.117514
O	     16.23680      9.94688     -4.01138         0.233860      0.090160     -0.090968
O	     16.29403     14.11653     -8.17300         0.028746      0.154873     -0.111031
O	      8.17751      7.96613     -2.03618        -0.023094      0.110538     -0.111694
O	      8.10285     12.10390     -6.18882        -0.027405      0.130969     -0.121651
O	     16.40586     11.89314     -2.01289         0.012083      0.136226     -0.127519
O	     16.35397     16.10283     -6.23960         0.013746      0.117576     -0.166485
O	      8.17586      9.94389     -0.06061        -0.021752      0.119839     -0.120393
O	      8.24990     14.11973     -4.24880        -0.079981      0.129873     -0.123569
O	      2.16564      9.92533      1.92832        -0.090100      0.125161     -0.114762
O	      2.05904     14.14468     -2.41132        -0.061382      0.127549     -0.052684
O	     10.42947      5.98894     -5.98573        -0.109535      0.106485     -0.107544
O	     10.14740     10.20420    -10.20204         0.096804      0.115346     -0.145322
O	      2.14922      5.98676     -2.02508        -0.082182      0.106959     -0.130879
O	      2.05161     10.32227     -6.25437        -0.060924      0.063628     -0.132200
O	     10.45476      7.99792     -4.02658        -0.142736      0.092852     -0.106848
O	     10.30954     12.15994     -8.40483        -0.181750      0.107944     -0.085461
O	      2.15136      7.95676     -0.05233        -0.083210      0.127597     -0.107833
O	      2.07966     12.18781     -4.30267        -0.064327      0.110149     -0.113951
O	     10.45472      9.95677     -2.06476        -0.147296      0.110684     -0.088600
O	     10.26683     14.29494     -6.23805        -0.120058      0.098392     -0.103014
