# total energy = -854.55446646 eV
 
CRYSTAL
PRIMVEC
0.003540 5.912393 5.913708 
16.619822 3.990317 -3.981803 
-0.190878 8.337462 -8.339003 
PRIMCOORD
179 1
Li	      8.27168      7.98918      3.82470         0.010616      0.024449     -0.015163
Li	      8.18144      6.27829     -6.26209        -0.002372      0.011653     -0.007750
Li	     16.59786      4.07965     -4.04265         0.000395      0.028400     -0.021958
Li	     16.42346      8.23528     -8.22610         0.008626      0.013157     -0.013807
Li	      8.34826      4.04933     -0.10210         0.019263      0.018743     -0.020847
Li	      8.14130      8.22466     -4.31781        -0.003454      0.013096     -0.008904
Li	      0.04685      2.04319      1.87166         0.003236      0.021595     -0.028653
Li	     16.50623     10.24609     -6.24296         0.003673      0.015512     -0.006278
Li	      8.27285      6.04057      1.86051         0.009564      0.015555     -0.021390
Li	      8.21699     10.24672     -2.27374        -0.011490      0.011742     -0.003804
Li	     16.61787      8.02206     -0.11734        -0.001000      0.022032     -0.026299
Li	     16.50168     12.15595     -4.27701         0.009514      0.015941     -0.004679
Li	      2.32352      2.17947     -0.21274         0.005804      0.006240     -0.014181
Li	      2.18010      6.31688     -4.37915         0.003962     -0.020185     -0.001122
Li	     10.57189      4.10918     -2.13680        -0.008356      0.004190     -0.008548
Li	     10.33244      8.25453     -6.27945        -0.009763     -0.002915      0.009128
Li	      2.32769      4.14755      1.76787         0.004046      0.009107     -0.007650
Li	      2.14003      8.27615     -2.36377        -0.007022     -0.024744      0.004096
Li	     10.58882      6.08942     -0.16728        -0.015345      0.010737     -0.003418
Li	     10.44905     10.44131     -4.23267        -0.009436     -0.007016      0.012905
Li	      2.25432      6.08987      3.74264        -0.001068     -0.008300     -0.001107
Li	      2.20507     10.25444     -0.42765         0.011690     -0.005579     -0.000285
Li	     10.57552      8.05249      1.81859        -0.016038      0.005244     -0.009697
Li	     12.25831     13.97610     -2.38120        -0.016440     -0.007594     -0.002856
Li	      6.03675      3.86614     -1.88262         0.012690     -0.000919      0.003794
Li	     14.35264      5.86365     -3.89170         0.010708     -0.006667      0.007827
Li	     14.31247     10.15596     -8.10614        -0.001322     -0.010580      0.006920
Li	      6.03908      5.83102      0.09080         0.009083     -0.000132      0.000152
Li	      5.89244      9.92016     -4.17422         0.021029     -0.023331      0.034174
Li	     14.35033      7.82016     -1.90859         0.009650     -0.010849      0.007855
Li	     14.19594     12.02474     -6.08061         0.005164     -0.012642      0.006603
Li	      6.03509      7.80691      2.05190         0.013263     -0.000305      0.002359
Li	      5.91623     12.10273     -2.02426         0.027581     -0.032182      0.023569
Li	     14.32614      9.78413      0.06758         0.007593     -0.009664      0.004668
Li	     14.35508     14.02780     -4.23457         0.001757     -0.018144      0.018280
Ni	     16.56799     11.97609     -0.14316        -0.143869     -0.048564      0.036779
Ni	     -0.09071     12.13904     -0.34322        -0.132777     -0.056704      0.037222
Ni	      8.26901      4.04619     -4.03898        -0.169850     -0.037693      0.010655
Ni	      8.19741      8.21101     -8.19547        -0.103685     -0.034832      0.049101
Ni	     16.56210      8.03409     -4.08677        -0.140554     -0.042764      0.040082
Ni	     16.47340     12.19196     -8.24771        -0.079800     -0.059984      0.048533
Ni	      8.27160      6.00965     -2.06525        -0.152509     -0.031204      0.043519
Ni	      8.15745     10.21820     -6.24990        -0.178053     -0.088816      0.077161
Ni	     16.56777     10.00243     -2.10920        -0.127245     -0.039492      0.050442
Ni	     -0.09639     10.13938     -2.25565        -0.129056     -0.046739      0.054933
Ni	      8.27204      7.98160     -0.09245        -0.162336     -0.017088      0.022496
Ni	      8.15351     12.18113     -4.24949        -0.122297     -0.060925      0.053012
Ni	      2.09967      4.07321     -2.10207        -0.055315      0.001424     -0.007355
Ni	      1.94261      8.24350     -6.29927         0.016282     -0.011640     -0.005030
Ni	     10.42511      6.03413     -4.05384        -0.083437     -0.029919      0.024109
Ni	     10.25144     10.25582     -8.26020        -0.008912      0.012275      0.021382
Ni	      2.10649      6.03991     -0.12512        -0.055131      0.005020     -0.011068
Ni	      1.98031     10.19777     -4.30463        -0.039627      0.001159      0.025712
Ni	     10.41808      8.00817     -2.09870        -0.082971     -0.007144      0.037741
Ni	     10.24127     12.22488     -6.29455        -0.004265     -0.018176     -0.019617
Ni	      2.11097      8.01386      1.84514        -0.058896      0.010311      0.005443
Ni	      2.01816     12.18403     -2.34961        -0.073001     -0.009875     -0.010880
Ni	     10.41577      9.98799     -0.12971        -0.093071     -0.023830      0.000347
Ni	     10.28926     14.20670     -4.34957        -0.077249     -0.018835      0.017322
Ni	      4.09667      4.12349     -4.11673         0.022936     -0.000735     -0.029769
Ni	      3.96716      8.29851     -8.28315         0.018541     -0.006503      0.053179
Ni	     12.37240     12.03650     -0.21150        -0.047861      0.021679      0.022427
Ni	     12.29109     16.20400     -4.38083         0.024560      0.025343      0.030011
Ni	      4.09285      6.09241     -2.14767         0.005829      0.023234      0.005793
Ni	      3.98144     10.23489     -6.29507         0.093067     -0.004002      0.020636
Ni	     12.36784      8.11103     -4.16856        -0.028905     -0.000332     -0.039017
Ni	     12.28064     12.23683     -8.29586         0.026261     -0.031022     -0.006547
Ni	      4.10124      8.05887     -0.17134         0.028670      0.028929     -0.030314
Ni	      3.98915     12.24053     -4.35458        -0.004220      0.000949     -0.015297
Ni	     12.37086     10.08299     -2.19149        -0.080218      0.022353     -0.015117
Ni	     12.29538     14.22135     -6.33693        -0.007202     -0.016778      0.015277
Ni	      6.07665      6.17659     -4.19812         0.079966      0.049465     -0.049278
Ni	      6.00974     10.32727     -8.34186         0.080561      0.047744     -0.047389
Ni	     14.36445      8.19221     -6.20536         0.068658      0.036326     -0.053931
Ni	     14.29469     12.32705    -10.35950         0.116943      0.023769     -0.035722
Ni	      6.10593      8.12484     -2.19530         0.053451      0.041407     -0.002894
Ni	      6.02632     12.30081     -6.38394         0.052385      0.059118     -0.063224
Ni	     14.37284     10.15349     -4.23253         0.060744      0.035531     -0.062399
Ni	     14.33789     14.26770     -8.37009         0.062845      0.050681     -0.045485
Ni	      6.11256     10.08580     -0.23600         0.054022      0.004426     -0.043786
Ni	      5.97143     14.28579     -4.41563         0.082097      0.055511     -0.048026
Ni	     14.37544     12.10872     -2.25615         0.088076      0.072169     -0.033305
Ni	     14.31318     16.24979     -6.40448         0.076219      0.046969     -0.042025
O	      4.13284      4.23705     -2.26234         0.101351     -0.126207      0.140142
O	      3.81709      8.35866     -6.39781         0.155042     -0.121968      0.085045
O	     12.45380      6.25187     -4.26532         0.115636     -0.099684      0.100503
O	     12.26658     10.33550     -8.42242         0.124151     -0.138598      0.077000
O	      4.13845      6.20391     -0.29013         0.105763     -0.131278      0.118461
O	      3.99363     10.37918     -4.44138         0.098255     -0.097900      0.156217
O	     12.45029      8.22554     -2.31853         0.126873     -0.107370      0.123076
O	     12.27436     12.36188     -6.43518         0.133886     -0.094444      0.163071
O	      4.14231      8.17872      1.68371         0.105387     -0.119777      0.128860
O	      4.02071     12.36149     -2.50027         0.113966     -0.118129      0.116229
O	     12.44123     10.18491     -0.33187         0.141879     -0.115309      0.101838
O	     12.34687     14.34400     -4.45437         0.105894     -0.109015      0.102020
O	      5.97067      4.24897     -4.22956         0.090540     -0.112251      0.140703
O	      5.84942     14.33705     -2.51141         0.128779     -0.107633      0.111833
O	     14.24892      6.27251     -6.26351         0.105881     -0.102525      0.110484
O	     14.19570     10.41091    -10.39777         0.082927     -0.119621      0.115243
O	      5.96415      6.20344     -2.27062         0.093532     -0.129283      0.101780
O	      6.17330     10.39213     -6.42260        -0.103880     -0.105879      0.106494
O	     14.24934      8.24551     -4.30281         0.103599     -0.098179      0.117944
O	     14.42862     12.35345     -8.44833         0.002315     -0.123888      0.116154
O	      5.97632      8.16709     -0.27950         0.091946     -0.112509      0.119871
O	      5.86440     12.36999     -4.47382         0.106760     -0.102045      0.111598
O	     14.25126     10.19582     -2.31755         0.130570     -0.118567      0.111835
O	     14.18870     14.31110     -6.43729         0.107763     -0.101196      0.103770
O	      4.04060      5.97867     -4.00288        -0.115435      0.113472     -0.106177
O	      3.97734     10.15103     -8.15086        -0.093265      0.108575     -0.148120
O	     12.28790      7.98792     -6.05083        -0.077322      0.103259     -0.099091
O	     12.27892     12.14398    -10.16250        -0.090691      0.098089     -0.151084
O	      4.05293      7.94929     -2.03083        -0.141594      0.105122     -0.106343
O	      3.99623     12.10114     -6.21357        -0.103226      0.156985     -0.087958
O	     12.31332      9.96690     -4.04777        -0.083549      0.111077     -0.109513
O	     12.29271     14.10481     -8.18458        -0.068193      0.166700     -0.114006
O	      4.07305      9.91915     -0.06170        -0.160701      0.097544     -0.096588
O	      3.93915     14.10724     -4.22667        -0.086490      0.109714     -0.130063
O	     12.33566     11.95138     -2.06486        -0.098603      0.114793     -0.114955
O	     12.29123     16.08611     -6.23620        -0.093203      0.101981     -0.122960
O	      6.33717      1.90023     -1.87600         0.013530      0.123783     -0.146641
O	      6.28070     11.91498     -0.12530         0.010399      0.206714     -0.178393
O	     14.65994      9.79152      2.02972         0.005456      0.116920     -0.151351
O	     14.40119     14.01132     -2.17945         0.005892      0.129701     -0.136922
O	      6.39530      3.85037      0.08944         0.016811      0.144646     -0.143481
O	      6.26062      8.02151     -4.02359         0.007281      0.187081     -0.202935
O	     14.71010      5.83930     -1.90668         0.006200      0.154447     -0.131555
O	     14.55049     10.05665     -6.10475         0.006225      0.153921     -0.145549
O	      6.34234      5.83777      2.05583         0.009997      0.147685     -0.125060
O	      6.28252      9.99332     -2.10576         0.002561      0.171839     -0.192609
O	     14.67011      7.80159      0.07015         0.013429      0.147957     -0.149075
O	     14.54681     12.01613     -4.11059         0.015173      0.144044     -0.161660
O	     16.50724      6.15401     -4.18033        -0.019344     -0.138281      0.143923
O	     16.47004     10.31238     -8.35520        -0.026640     -0.135242      0.119735
O	      8.23990      4.12657     -2.16154         0.006801     -0.151735      0.157357
O	      8.28821      8.33791     -6.32161         0.050692     -0.147224      0.160698
O	     16.51670      8.11923     -2.19660        -0.024069     -0.137073      0.146423
O	     -0.07729      8.27146     -2.27808         0.011090     -0.161373      0.111485
O	      8.23433      6.10345     -0.17939        -0.000503     -0.161498      0.146893
O	      8.12019     10.29754     -4.37363         0.009710     -0.149941      0.163011
O	     16.54054     10.08438     -0.22128        -0.017692     -0.131139      0.127900
O	     16.47170     14.24783     -4.35071        -0.012136     -0.118355      0.119424
O	      8.23042      8.07160      1.79265        -0.000946     -0.150857      0.159223
O	      7.99833     12.27004     -2.38320        -0.005378     -0.143275      0.146625
O	      1.95391      4.15127     -0.21451         0.093918     -0.144122      0.144068
O	      1.82534      8.26552     -4.42622         0.090660     -0.128751      0.136180
O	     10.28912      6.12939     -2.17454         0.114915     -0.151004      0.137285
O	     10.02133     10.28740     -6.25979         0.233173     -0.087576      0.068728
O	      1.96216      6.12594      1.75537         0.084924     -0.145490      0.153704
O	      1.91321     10.28825     -2.42737         0.097795     -0.128225      0.128854
O	     10.27933      8.10763     -0.21379         0.125837     -0.138668      0.136414
O	     10.16223     12.34888     -4.45409         0.099064     -0.115828      0.166852
O	      1.95610      2.18983     -2.18581         0.089961     -0.151736      0.140504
O	      1.92341     12.27207     -0.47594         0.093393     -0.116932      0.141653
O	     10.28177     10.06137      1.75297         0.130921     -0.125148      0.154702
O	     10.25751      8.40526     -8.37040         0.097324     -0.135685      0.117685
O	     16.50782      7.97167     -6.00603        -0.011299      0.128155     -0.127514
O	      0.02799      8.13154     -6.31875        -0.148134      0.128771     -0.100989
O	      8.22837      5.94675     -3.96610         0.023913      0.132905     -0.127199
O	      8.20989     10.11889     -8.14103        -0.072006      0.115605     -0.122273
O	     16.52227      9.93444     -4.01225        -0.020671      0.123377     -0.120497
O	     -0.13699     10.08033     -4.15242        -0.014409      0.131244     -0.146033
O	      8.21318      7.90933     -1.99284         0.073207      0.115005     -0.119128
O	      8.15104     12.11199     -6.16195        -0.052056      0.122756     -0.105896
O	     16.51604     11.91897     -2.04685        -0.017009      0.103812     -0.125860
O	     16.45265     16.02681     -6.21774        -0.014544      0.128772     -0.138787
O	      8.20946      9.88768     -0.03132         0.078896      0.099500     -0.109781
O	      8.11920     14.08243     -4.18247         0.000460      0.140896     -0.120641
O	      2.20427      9.92966      1.89646        -0.119757      0.106875     -0.100336
O	      2.06452      8.20555     -8.18525        -0.122631      0.120228     -0.133351
O	     10.48772      5.97701     -5.93720        -0.074561      0.112680     -0.134027
O	     10.40548     16.11421     -4.34737        -0.100976      0.129336     -0.072259
O	      2.19329      5.98583     -2.03483        -0.116841      0.107986     -0.108069
O	      1.88709     10.11577     -6.18274        -0.083311      0.113667     -0.126976
O	     10.49109      7.95110     -4.01372        -0.087830      0.099815     -0.113608
O	     10.19663     12.12780     -8.17815        -0.082032      0.130373     -0.134221
O	      2.20504      7.95853     -0.06426        -0.132223      0.107665     -0.109277
O	      2.08370     12.16220     -4.25146        -0.112252      0.105692     -0.126164
O	     10.48389      9.89524     -2.04568        -0.075883      0.119106     -0.107469
O	     10.39646     14.17878     -6.26276        -0.086616      0.090306     -0.126828
