# total energy = -854.38828305 eV
 
CRYSTAL
PRIMVEC
-0.001820 5.909235 5.914045 
16.659461 3.988523 -3.997075 
-0.175572 8.318478 -8.324646 
PRIMCOORD
179 1
Li	      8.29644      7.95188      3.86454        -0.006544      0.021103     -0.021015
Li	      8.23983      6.21808     -6.22373        -0.000089      0.015701     -0.015413
Li	     16.58438      9.99148      1.77229         0.016327      0.025485     -0.024955
Li	     16.49543      8.27124     -8.27048         0.026373     -0.008187     -0.007042
Li	      8.29784      4.01215     -0.07311        -0.003552      0.021853     -0.024853
Li	      8.21101      8.21395     -4.26267        -0.004381      0.010825     -0.012685
Li	      0.00478      2.06820      1.92435         0.014581      0.039773     -0.031114
Li	     16.55251     10.23054     -6.29016         0.006213      0.007186     -0.002735
Li	      8.29105      5.98679      1.88958         0.001017      0.023607     -0.022579
Li	      8.24433     10.15837     -2.30099        -0.000187      0.014687     -0.017034
Li	     16.60480      8.06396     -0.17698         0.020320      0.036174     -0.029546
Li	     -0.07667      8.19568     -0.35246         0.033632      0.005636      0.000851
Li	      2.25200      2.26529     -0.05763         0.009099      0.004847     -0.016511
Li	      2.17206      6.29236     -4.32525         0.013209     -0.047416      0.015607
Li	     10.62740      4.16292     -2.19365        -0.003345     -0.003215     -0.000321
Li	     10.40628      8.25516     -6.21597        -0.001014     -0.004854      0.000774
Li	      2.18549      8.25868     -2.33375         0.002525     -0.014888      0.028538
Li	     10.61755      6.12237     -0.22799        -0.001221     -0.004053      0.008741
Li	     10.57135     10.26768     -4.38664        -0.001023     -0.000395      0.005074
Li	      2.19928      5.96003      3.68650        -0.011326      0.016546     -0.026154
Li	      2.15414     10.23615     -0.38888         0.001723     -0.021184      0.027607
Li	     10.63059      8.10394      1.73732        -0.001321     -0.000554      0.002751
Li	     10.40701     12.10661     -2.34186        -0.007914     -0.009593      0.006750
Li	     12.44496     14.03201     -2.26284        -0.004246      0.000890     -0.004736
Li	      6.01104      3.86567     -1.89173         0.005095      0.002958      0.001216
Li	      5.95067      8.02123     -6.05733         0.002492     -0.018697      0.016895
Li	     14.32308      5.78310     -3.96336         0.016480      0.011872      0.005528
Li	     14.40263     10.14529     -8.09407         0.012448     -0.024734      0.019427
Li	      6.01156      5.83000      0.08094        -0.002889     -0.001951      0.003442
Li	      5.95038      9.99670     -4.08621         0.003445     -0.016906      0.008201
Li	     14.32738      7.91432     -1.84645         0.014532      0.006181     -0.004636
Li	     14.30009     11.99881     -6.09853         0.029075     -0.014530      0.021020
Li	      6.00308      7.81432      2.04008        -0.004513      0.001227     -0.007663
Li	      5.97458     11.98164     -2.13262         0.004286     -0.020717      0.015254
Li	     14.41567     14.01009     -4.24413         0.014127     -0.026385      0.026176
Ni	     16.61142      6.09752     -6.07799        -0.145799     -0.074543      0.029964
Ni	     -0.10144     12.12574     -0.30800        -0.134890     -0.039568      0.047700
Ni	      8.31060      4.02489     -4.02584        -0.156612     -0.057412      0.035459
Ni	      8.22622      8.20444     -8.21132        -0.128739     -0.035373      0.047803
Ni	     16.60948      8.04372     -4.09023        -0.133472     -0.030887      0.031500
Ni	     -0.09866      8.18201     -4.24227        -0.131603     -0.044837      0.045736
Ni	      8.29619      5.98964     -2.05674        -0.123329     -0.035954      0.042920
Ni	      8.19625     10.18131     -6.24651        -0.156514     -0.045311      0.042017
Ni	     16.58393     10.03826     -2.16224        -0.043317     -0.049244      0.062434
Ni	     -0.10306     10.15789     -2.28176        -0.131688     -0.049662      0.039273
Ni	      8.30873      7.95968     -0.09339        -0.149023     -0.041870      0.044481
Ni	      8.19528     12.14973     -4.27792        -0.148971     -0.049151      0.036946
Ni	      2.07634      4.08564     -2.10909        -0.020110     -0.033102     -0.038950
Ni	      2.04740      8.20081     -6.23923        -0.054163     -0.027434      0.021753
Ni	     10.40561      6.07044     -4.11179        -0.053659      0.015486      0.009750
Ni	     10.35526     10.20065     -8.23341        -0.063107     -0.023556      0.000771
Ni	      2.09583      6.02472     -0.14349        -0.021593     -0.005585      0.075617
Ni	      2.03831     10.18068     -4.27304        -0.046009     -0.004488     -0.010063
Ni	     10.39918      8.05216     -2.14079        -0.032586     -0.006743     -0.018900
Ni	     10.35570     12.16766     -6.26575        -0.052985     -0.007623      0.010829
Ni	      2.06433      8.01237      1.84323         0.041071      0.004264      0.000746
Ni	      2.04585     12.14386     -2.29140        -0.053177     -0.015572      0.033420
Ni	     10.33781     10.01160     -0.16535        -0.114103     -0.020903      0.019491
Ni	     10.35206     14.13034     -4.29729        -0.062824      0.002957      0.014605
Ni	      4.07500     10.02315      1.78395        -0.028684     -0.007883     -0.003618
Ni	      3.99441      8.28978     -8.29517         0.015786      0.022183     -0.010300
Ni	     12.40377     11.99849     -0.18965         0.084354     -0.030164     -0.031558
Ni	     12.35627     10.25442    -10.26622        -0.018933     -0.026979      0.017379
Ni	      4.09177      6.08635     -2.16470         0.003948     -0.002036      0.003321
Ni	      3.99516     10.26288     -6.32025        -0.000764      0.027816      0.001207
Ni	     12.42804      8.10473     -4.17139        -0.030860      0.014619     -0.041656
Ni	     12.35350     12.20936     -8.28255        -0.007554     -0.026420      0.027641
Ni	      4.07062      8.05089     -0.20121         0.011709      0.001270      0.000050
Ni	      3.99301     12.22773     -4.35362         0.008133     -0.003771     -0.035706
Ni	     12.39942     10.05711     -2.16260         0.100656      0.058216      0.043935
Ni	     12.35291     14.18432     -6.30828        -0.014852     -0.030623      0.038320
Ni	      6.10787      6.14066     -4.18611         0.057352     -0.002993     -0.030960
Ni	      5.98748     10.32779     -8.36555         0.073981      0.026665     -0.024258
Ni	     14.46917      8.16920     -6.19573         0.049685      0.026907     -0.053984
Ni	     14.36860     12.30526    -10.33064         0.022620      0.034640      0.001448
Ni	      6.11005      8.11721     -2.21500         0.060202      0.023423     -0.000984
Ni	      5.98601     12.29569     -6.38873         0.079188      0.046296     -0.046101
Ni	     14.46458     10.14025     -4.22470         0.033060      0.052805     -0.043296
Ni	     14.37041     14.25710     -8.36639         0.023948     -0.006999     -0.025850
Ni	      6.05448     10.09676     -0.25715         0.111245     -0.003399      0.005255
Ni	      5.98230     14.27234     -4.42378         0.069614      0.022951     -0.028901
Ni	     14.50219     12.09282     -2.24878         0.038463      0.039870     -0.030774
Ni	     14.33410     16.26291     -6.42078         0.049450      0.040989     -0.040975
O	      4.11695      4.22527     -2.27428         0.120289     -0.119445      0.122165
O	      4.06782      8.40041     -6.44034         0.136155     -0.133579      0.125602
O	     12.42542      6.24456     -4.25945         0.115880     -0.132604      0.183694
O	     12.41324     10.32783     -8.40562         0.109761     -0.127566      0.119985
O	      4.12631      6.19897     -0.30844         0.127262     -0.116926      0.123742
O	      4.06313     10.37421     -4.46637         0.134121     -0.121000      0.121323
O	     12.42640      8.20685     -2.32172         0.133070     -0.178874      0.149378
O	     12.39568     12.33166     -6.42918         0.098160     -0.150302      0.146288
O	      4.07774      8.15584      1.66663         0.138082     -0.095879      0.107887
O	      4.07098     12.34551     -2.49158         0.124124     -0.130298      0.132972
O	     12.18989     10.12142     -0.28163         0.207796     -0.106532      0.103679
O	     12.41044     14.30202     -4.42590         0.112831     -0.117593      0.131594
O	      5.97105     10.12347      1.65771         0.093820     -0.097335      0.107640
O	      5.87951     14.32794     -2.51324         0.078240     -0.112520      0.108980
O	     14.62310      6.26646     -6.25394        -0.110254     -0.100370      0.135157
O	     14.22780     16.28476     -4.48989         0.130309     -0.101489      0.110581
O	      5.97637      6.18891     -2.27209         0.088110     -0.104920      0.110966
O	      5.87812     10.38590     -6.45104         0.087943     -0.135440      0.096969
O	     14.31601      8.22186     -4.28416         0.121550     -0.116348      0.119069
O	     14.23177     12.33303     -8.40729         0.137726     -0.114363      0.108471
O	      5.97619      8.18259     -0.29730         0.073845     -0.101414      0.105306
O	      5.87785     12.36039     -4.48336         0.074656     -0.095040      0.136771
O	     14.62541     10.19704     -2.31510        -0.165596     -0.097645      0.100735
O	     14.22892     14.32481     -6.43238         0.123346     -0.098241      0.105550
O	      4.06812      5.96636     -4.02079        -0.103136      0.147997     -0.125879
O	      3.94472     10.14512     -8.17731        -0.114185      0.125248     -0.123442
O	     12.41276      7.96254     -6.06231        -0.084245      0.158031     -0.122897
O	     12.30410     12.10485    -10.14109        -0.100546      0.145159     -0.144318
O	      4.07803      7.94161     -2.05515        -0.111700      0.127562     -0.135703
O	      3.96591     12.11343     -6.20299        -0.108329      0.117602     -0.118162
O	     12.43946      9.96688     -4.02118        -0.099496      0.118369     -0.188807
O	     12.29889     14.05869     -8.15678        -0.084411      0.172245     -0.169843
O	      4.03489      9.90642     -0.07294        -0.129024      0.137863     -0.131508
O	      3.93141     14.08616     -4.23916        -0.105460      0.126891     -0.120260
O	     12.44521     11.94412     -2.05567        -0.081595      0.153557     -0.138991
O	     12.29255     16.03963     -6.20081        -0.103538      0.152211     -0.144318
O	      6.35067      1.90562     -1.90652         0.017755      0.160032     -0.156482
O	      6.28947     11.94546     -0.13968         0.021921      0.168714     -0.150332
O	     14.69749      3.88454     -3.83620         0.024318      0.163145     -0.194656
O	     14.49433     13.98803     -2.18204        -0.005293      0.148734     -0.125127
O	      6.35102      3.87008      0.07279         0.025485      0.158728     -0.160971
O	      6.28506      8.01169     -4.07952         0.015615      0.148944     -0.156893
O	     14.71890      5.86580     -1.91915         0.006899      0.132003     -0.158362
O	     14.59323     10.03439     -6.10040         0.007409      0.154073     -0.159049
O	      6.34567      5.84465      2.03987         0.025255      0.157441     -0.159786
O	      6.29551      9.99207     -2.10318         0.013525      0.134099     -0.172072
O	     14.69899      7.76842      0.05717         0.023919      0.189398     -0.155473
O	     14.63401     12.00701     -4.11523         0.021547      0.148295     -0.189537
O	     16.55664      6.16390     -4.20458        -0.041111     -0.162033      0.182255
O	     16.51437     10.28068     -8.32656        -0.030723     -0.124058      0.126491
O	      8.29904      4.10716     -2.14599         0.006371     -0.145515      0.155020
O	      8.17802      8.29448     -6.32470        -0.000715     -0.147389      0.141695
O	     16.44524      8.18379     -2.23033        -0.047891     -0.228279      0.184636
O	     16.50873     12.25894     -6.35860        -0.027690     -0.124906      0.129882
O	      8.29649      6.08146     -0.17389         0.013815     -0.156436      0.149273
O	      8.12893     10.26812     -4.36925        -0.021095     -0.150086      0.151591
O	      0.05442      6.15002      3.70631         0.024945     -0.177330      0.180251
O	     16.52639     14.22763     -4.38946        -0.028437     -0.122622      0.126707
O	      8.28707      8.05252      1.78991         0.009999     -0.144623      0.141365
O	      8.16225     12.23679     -2.39460        -0.005951     -0.150527      0.151347
O	      1.94867      4.18113     -0.27199         0.075251     -0.172666      0.162102
O	      1.90404      8.29707     -4.35256         0.082309     -0.139895      0.134196
O	     10.31984      6.16814     -2.23045         0.102509     -0.150093      0.165403
O	     10.21475     10.28792     -6.35189         0.101690     -0.131600      0.133538
O	      1.79968      6.09188      1.74260         0.150552     -0.190386      0.079995
O	      1.90240     10.25775     -2.39320         0.088617     -0.138458      0.153295
O	     10.31396      8.13293     -0.24122         0.114509     -0.136597      0.138684
O	     10.21214     12.24694     -4.38080         0.094829     -0.133039      0.139767
O	      1.81400      2.17854     -2.06466         0.196386     -0.094167      0.130723
O	      1.90788      6.32467     -6.32789         0.102644     -0.147407      0.145936
O	     10.31223     10.07947      1.71471         0.123723     -0.127172      0.149600
O	     10.31531     14.20162     -2.39294         0.082938     -0.131260      0.128653
O	     16.59252      7.98229     -6.01132        -0.028466      0.147912     -0.127847
O	     16.49931     12.09981    -10.13471        -0.012376      0.141847     -0.136441
O	      8.22222      5.91968     -3.94980         0.014018      0.135377     -0.134296
O	      8.18923     10.10350     -8.15113        -0.007520      0.128434     -0.136659
O	     16.59308      9.94462     -4.04811        -0.033557      0.124825     -0.137526
O	     16.49701     14.06801     -8.17485        -0.003721      0.132188     -0.134790
O	      8.22787      7.88265     -1.99057         0.008190      0.122994     -0.129268
O	      8.15296     12.08762     -6.18293        -0.002440      0.122908     -0.124741
O	     -0.00913      7.96041      1.93130        -0.067111      0.131691     -0.132665
O	     16.50200     16.04645     -6.20532        -0.018109      0.134118     -0.143420
O	      8.37655      9.87643     -0.02996        -0.085166      0.115316     -0.121768
O	      8.18707     14.05565     -4.19842        -0.012977      0.138516     -0.127385
O	      2.19573      4.05777     -4.01128        -0.084047      0.214147     -0.135165
O	      2.11721      8.14919     -8.15246        -0.088142      0.117380     -0.112967
O	     10.28670     11.88563     -0.08676        -0.073740      0.139068     -0.126744
O	     10.45541     10.13440    -10.14323        -0.095215      0.114840     -0.115600
O	      2.20964      6.00694     -2.07242        -0.085492      0.123703     -0.114291
O	      2.10914     10.08568     -6.18253        -0.085935      0.130768     -0.119547
O	     10.50435      8.01652     -4.08224        -0.116554      0.080987     -0.103967
O	     10.45033     12.10852     -8.17733        -0.092526      0.122971     -0.120815
O	      2.19221      7.92523     -0.17342        -0.095097      0.151378     -0.127362
O	      2.11379     12.08674     -4.17315        -0.086423      0.123814     -0.145618
O	     10.28603      9.94390     -2.04250        -0.064492      0.131696     -0.127706
O	     10.44948     14.07402     -6.20335        -0.082468      0.109487     -0.117247
