# total energy = -853.70389964 eV
 
CRYSTAL
PRIMVEC
-0.006192 5.914131 5.906826 
16.629619 3.981678 -3.994297 
-0.190439 8.350972 -8.339926 
PRIMCOORD
179 1
Li	      8.27033      2.15346     -2.09424         0.002474      0.009434     -0.020221
Li	      8.23547      6.23855     -6.21915         0.022675      0.030055     -0.024282
Li	     16.57115      9.97136      1.80735         0.010305      0.017174     -0.022419
Li	     -0.03213      4.27788     -4.24608         0.006359      0.021954     -0.015790
Li	      8.29945      4.08472     -0.15807        -0.002177      0.007263     -0.021872
Li	      8.15738      8.21347     -4.26316         0.008425      0.017575     -0.048286
Li	     16.58114      6.02938     -2.09659         0.014363      0.021932     -0.021381
Li	     -0.09371      6.20794     -2.29410         0.007882      0.013339     -0.020612
Li	      8.32396      6.00031      1.79716        -0.000262      0.011968     -0.015568
Li	      8.15452     10.16456     -2.30348         0.010066      0.049994     -0.016299
Li	     16.57339      7.99781     -0.12301         0.006673      0.020796     -0.020111
Li	     16.46434     12.18931     -4.31789         0.012902      0.018630     -0.015379
Li	      2.29365      2.18549     -0.19330        -0.001490      0.003277      0.009159
Li	      2.23647      6.36105     -4.38174        -0.007318      0.012639     -0.010151
Li	     10.55454      4.26743     -2.08626        -0.037388      0.047122     -0.003684
Li	     10.46380      8.29416     -6.30513        -0.008367     -0.006677      0.049825
Li	      2.30536      4.15598      1.78762        -0.002035     -0.000661      0.001950
Li	      2.15743      8.32258     -2.38045         0.000385      0.004946     -0.005456
Li	     10.34511     10.15184     -4.30329        -0.007451      0.012588     -0.015083
Li	      2.25116      6.09268      3.76426        -0.002945     -0.001430      0.011830
Li	      2.23904     10.29944     -0.44323        -0.005357      0.009401     -0.004645
Li	     10.56609      7.96839      1.61685        -0.035214      0.013345     -0.037287
Li	     10.33608     12.19444     -2.25047        -0.004848     -0.048774      0.007566
Li	     12.37593     12.15428     -4.21648        -0.015279      0.003130      0.003802
Li	      5.93888      8.02548     -6.06144         0.020738     -0.004931      0.004954
Li	     14.26686      5.87050     -3.91159        -0.000134     -0.007174     -0.004944
Li	     14.27206     10.04684     -8.07722         0.017117     -0.005660      0.013166
Li	      6.01059      5.74278     -0.05402         0.037521     -0.018747      0.030030
Li	      5.92741     10.00097     -4.08887         0.010815     -0.005446      0.002953
Li	     14.30714      7.82967     -1.93980         0.035359     -0.013361      0.014881
Li	     14.36267     12.03935     -6.20948         0.001904     -0.012728      0.016248
Li	      5.99301      7.88647      2.12426         0.028215     -0.025151      0.017183
Li	      5.93262     11.96245     -2.11549         0.016784     -0.005367      0.001638
Li	     14.26532      9.79472      0.02707         0.010803      0.001199      0.007550
Li	     14.36961     14.09942     -4.15803         0.013194     -0.013832      0.021627
Ni	     16.55326     11.96804     -0.15917        -0.096119     -0.044370      0.051920
Ni	     -0.13014      6.25673     -6.24390        -0.139296     -0.069798      0.036725
Ni	      8.26044      9.97759      1.82665        -0.151926     -0.086468      0.112343
Ni	      8.17068      8.20926     -8.19915        -0.157052     -0.064062      0.029787
Ni	     -0.02324      4.05686     -0.09126        -0.140738     -0.041813      0.021955
Ni	     -0.12919      8.22639     -4.27615        -0.148689     -0.024517      0.047709
Ni	      8.29558      6.01575     -2.08351        -0.104592     -0.105080      0.023096
Ni	      8.16932     10.18334     -6.23851        -0.159644     -0.032084      0.035173
Ni	     -0.03669      5.98322      1.89625        -0.136667     -0.044456      0.058562
Ni	     -0.12991     10.19698     -2.30617        -0.143742     -0.054364      0.054719
Ni	      8.26170      7.97107     -0.13145        -0.100748     -0.037243      0.104328
Ni	      8.19529     12.13970     -4.25579        -0.116127     -0.025105      0.049302
Ni	      2.03687      4.09800     -2.10795        -0.039102     -0.001610      0.035785
Ni	      2.01891      8.25459     -6.27721        -0.056369     -0.003438     -0.010945
Ni	     10.34638      6.08923     -4.13799         0.033922     -0.046367     -0.059009
Ni	     10.32585     10.19399     -8.22328        -0.072134     -0.013561      0.013295
Ni	      2.09792      6.06332     -0.12900        -0.072319      0.000792      0.000409
Ni	      2.02068     10.22391     -4.30584        -0.052178      0.002950     -0.002173
Ni	     10.42008      8.05626     -2.15520         0.127955     -0.647028      0.613060
Ni	     10.30750     12.18186     -6.27422        -0.088643     -0.003696     -0.000638
Ni	      2.06961      8.02359      1.84836        -0.051683     -0.029664      0.002327
Ni	      2.01643     12.19670     -2.33767        -0.059897      0.001963      0.011256
Ni	     10.34050     10.02136     -0.18668         0.026836      0.068576      0.034707
Ni	     10.31227     14.15147     -4.28138        -0.090019     -0.010887      0.029419
Ni	      4.07863      4.09508     -4.08936         0.091409     -0.011440      0.023103
Ni	      4.01133      8.30527     -8.29828        -0.013585      0.003535     -0.014081
Ni	     12.35965     12.06596     -0.25662         0.009235     -0.002931     -0.028067
Ni	     12.28336     16.18450     -4.36527        -0.016214      0.018604      0.021798
Ni	      4.05633      6.08433     -2.15318        -0.006088     -0.035965      0.007812
Ni	      4.01064     10.27600     -6.33090        -0.010217     -0.001387      0.006960
Ni	     12.37237      8.13577     -4.19390        -0.023648     -0.002330     -0.191560
Ni	     12.28642     12.25108     -8.29881        -0.031730     -0.016643     -0.004986
Ni	      4.08113      8.06683     -0.18181        -0.010085      0.001143      0.001197
Ni	      4.01015     12.24416     -4.35657        -0.000616      0.004067     -0.007231
Ni	     12.37229     10.09218     -2.21438        -0.064481      0.201822      0.026213
Ni	     12.28421     14.22856     -6.35150        -0.046632     -0.006162      0.008695
Ni	      6.09971      6.14395     -4.18483         0.082443      0.021387     -0.022170
Ni	      6.00142     10.35641     -8.38229         0.061556      0.036780     -0.040941
Ni	     14.39250      8.18318     -6.21423         0.120404      0.018230     -0.026211
Ni	     14.28183     12.33813    -10.36889         0.045859      0.012582     -0.056251
Ni	      6.05758      8.12903     -2.22885         0.001189      0.065560     -0.061016
Ni	      6.02594     12.31025     -6.38028         0.055974      0.027707     -0.002454
Ni	     14.40941     10.13658     -4.23168         0.063540      0.044612     -0.022934
Ni	     14.26435     14.31042     -8.40518         0.069766      0.038864     -0.009740
Ni	      6.11270     10.09862     -0.24803         0.058215      0.035119     -0.034966
Ni	      6.02399     14.26581     -4.42170         0.051118     -0.002357     -0.027652
Ni	     14.42747     12.12419     -2.24887         0.045682      0.035531     -0.039806
Ni	     14.26991     16.28629     -6.43685         0.063383      0.041684     -0.021081
O	      3.90714      4.20186     -2.21307         0.181862     -0.102175      0.130113
O	      4.04820      8.42006     -6.44360         0.120040     -0.131036      0.135297
O	     12.35432      6.27886     -4.28538         0.138390     -0.092498      0.166654
O	     12.36339     10.38763     -8.41915         0.112880     -0.125530      0.116064
O	      4.10516      6.21216     -0.30287         0.116955     -0.121370      0.126641
O	      4.04728     10.38943     -4.47469         0.121839     -0.135456      0.131193
O	     12.43227      8.24275     -2.33677        -0.162363     -0.183343      0.187498
O	     12.36508     12.37048     -6.41897         0.124469     -0.114905      0.107432
O	      4.09650      8.15806      1.67559         0.108975     -0.171092      0.111425
O	      4.04661     12.36322     -2.50112         0.121689     -0.132806      0.125551
O	     12.37135     10.19752     -0.35696         0.125250     -0.158687      0.091096
O	     12.37068     14.30375     -4.47885         0.119990     -0.135534      0.107521
O	      6.26379     10.13915      1.65934        -0.103349     -0.107972      0.106852
O	      5.88475      8.42783     -8.40881         0.095341     -0.110602      0.117870
O	     14.48289      6.28387     -6.25850         0.041826     -0.099779      0.112004
O	     14.16632     16.33371     -4.51586         0.108012     -0.108274      0.099928
O	      5.93228      6.22513     -2.27987         0.147259     -0.118994      0.108797
O	      5.88470     10.38950     -6.45270         0.098194     -0.125117      0.113955
O	     14.27789      8.22007     -4.30200         0.094079     -0.116605      0.139770
O	     14.16896     12.39546     -8.44563         0.113377     -0.122499      0.107819
O	      5.95233      8.18612     -0.31401         0.110172     -0.099855      0.112176
O	      5.88439     12.34987     -4.46269         0.097986     -0.123415      0.117987
O	     14.25985     10.20144     -2.31084         0.113796     -0.126645      0.115017
O	     14.16389     14.37044     -6.48993         0.108644     -0.106846      0.107639
O	      4.06969      5.95167     -4.00556        -0.085120      0.167164     -0.119767
O	      3.96208     10.16106     -8.18611        -0.119683      0.126466     -0.120477
O	     12.36587      8.00974     -6.04758        -0.072244      0.180944     -0.073410
O	     12.22491     12.12096    -10.15337        -0.080215      0.121466     -0.101107
O	      4.02445      7.93919     -2.04795        -0.110265      0.149952     -0.119755
O	      3.97305     12.13179     -6.21393        -0.119524      0.123146     -0.116240
O	     12.35116     10.02066     -4.07903        -0.091791      0.122248     -0.123784
O	     12.23987     14.10099     -8.19366        -0.090949      0.137212     -0.127804
O	      4.08649      9.92425     -0.04751        -0.081313      0.116509     -0.170443
O	      3.96392     14.10180     -4.24736        -0.134640      0.113539     -0.121742
O	     12.34157     11.95440     -2.15696        -0.033302      0.083166     -0.163656
O	     12.22371     16.08160     -6.22459        -0.094615      0.114330     -0.129678
O	      6.38328      7.74364      4.02058         0.016016      0.200470     -0.175541
O	      6.28754      6.05120     -6.04591         0.008203      0.139690     -0.154723
O	     14.63112      3.89218     -3.90067        -0.003229      0.151525     -0.140251
O	     14.63527      8.07705     -8.06210         0.014689      0.137803     -0.165591
O	      6.39744      3.84638      0.13072         0.013886      0.182635     -0.199201
O	      6.22994      8.01804     -4.09380         0.006047      0.155829     -0.140537
O	     14.63382      5.85061     -1.93331         0.002667      0.163266     -0.175582
O	     14.58683     10.04343     -6.09624         0.008284      0.163445     -0.149004
O	      6.39544      5.82818      2.05302         0.004947      0.177382     -0.175138
O	      6.22938      9.99747     -2.12226         0.005503      0.141579     -0.150282
O	     14.62781      7.82266      0.03738         0.003691      0.167653     -0.170233
O	     14.45031     12.03609     -4.14616        -0.001338      0.138742     -0.124750
O	     16.57054      6.15485     -4.19089        -0.005404     -0.140588      0.146677
O	     16.44906     10.33277     -8.35669        -0.013892     -0.148389      0.145963
O	      8.42239      4.14929     -2.20550        -0.011246     -0.196485      0.151440
O	      8.12584      8.30850     -6.32009        -0.019788     -0.153872      0.152826
O	     16.55169      8.08143     -2.20856        -0.015041     -0.147146      0.160102
O	     16.46186     12.28721     -6.37653        -0.015898     -0.134290      0.133579
O	      8.10564      6.10757     -0.22628        -0.015033     -0.160872      0.155626
O	      8.15448     10.25506     -4.34604         0.002637     -0.170001      0.153651
O	     16.59173     10.01764     -0.22239         0.008114     -0.164550      0.153447
O	     16.43969     14.26117     -4.41803        -0.014982     -0.135785      0.132801
O	      8.24287      8.09863      1.75255        -0.026784     -0.157322      0.171233
O	      8.15192     12.22971     -2.37746        -0.005793     -0.140095      0.146777
O	      1.99420      4.18763     -0.22289         0.097934     -0.145093      0.126622
O	      1.87762      8.34026     -4.39127         0.101529     -0.141713      0.141574
O	     10.29735      6.20331     -2.29734         0.059477     -0.763445     -0.023129
O	     10.17939     10.30083     -6.34533         0.131565     -0.138005      0.144015
O	      1.97628      6.13926      1.76215         0.099775     -0.136411      0.139992
O	      1.87804     10.31278     -2.41727         0.105001     -0.133832      0.143625
O	     10.26594      8.17750     -0.29317         0.054131     -0.002771      0.697359
O	     10.27383     12.25441     -4.37432         0.102141     -0.148474      0.131541
O	      1.93912      2.22622     -2.15393         0.088504     -0.157834      0.118084
O	      1.87883      6.36696     -6.35738         0.106576     -0.133465      0.133176
O	     10.12806     10.01031      1.74334         0.242102     -0.031636      0.064382
O	     10.18308      8.31690     -8.30815         0.128079     -0.158378      0.139882
O	      0.10917      4.08206     -2.00061        -0.140525      0.121579     -0.120185
O	     16.44202     12.14179    -10.17500        -0.011858      0.148345     -0.128419
O	      8.28812      5.95404     -3.99642        -0.096432      0.158499     -0.122434
O	      8.13271     10.11285     -8.14099         0.030593      0.133801     -0.126400
O	     16.52472      9.94228     -3.99729         0.004954      0.131914     -0.134790
O	     16.44640     14.11078     -8.20326        -0.023422      0.127603     -0.134649
O	      8.18932      7.91052     -2.02943         0.235897      0.177434     -0.174320
O	      8.14945     12.08596     -6.15463         0.021341      0.123248     -0.125596
O	     16.54472     11.86102     -2.04686        -0.001700      0.118396     -0.129700
O	     16.43757     16.08088     -6.23250        -0.009889      0.136738     -0.137255
O	      8.23856      9.88048     -0.06460        -0.063770      0.114671     -0.163093
O	      8.14430     14.03594     -4.19120         0.051588      0.102351     -0.125980
O	      1.98662      3.99312     -3.97730        -0.079014      0.143875     -0.145392
O	      2.10343     14.10676     -2.28384        -0.106360      0.116778     -0.118494
O	     10.28005     11.91222     -0.11453        -0.135225      0.123723     -0.115322
O	     10.40992     10.13199    -10.12873        -0.085149      0.119168     -0.114843
O	      2.14597      5.98591     -2.05937        -0.131035      0.142903     -0.111512
O	      2.10794     10.16739     -6.22206        -0.105518      0.115050     -0.124179
O	     10.48895      8.07854     -4.08220        -0.101851      0.199685     -0.907700
O	     10.40257     12.07951     -8.17062        -0.072894      0.132684     -0.120441
O	      2.17255      7.96699     -0.08781        -0.101804      0.142239     -0.095538
O	      2.11020     12.13524     -4.25224        -0.099828      0.118455     -0.114265
O	     10.47808      9.97535     -2.13490        -0.086102      0.976192     -0.176516
O	     10.39570     14.09184     -6.17160        -0.068925      0.115489     -0.130462
