# total energy = -854.46304328 eV
 
CRYSTAL
PRIMVEC
-0.000402 5.914026 5.908320 
16.637426 3.995091 -3.992759 
-0.183495 8.342992 -8.334427 
PRIMCOORD
179 1
Li	      8.19501      2.16734     -2.05646         0.007357      0.029219     -0.017134
Li	      8.18092      6.29276     -6.27680        -0.001947      0.009415     -0.010241
Li	     16.58620      9.94142      1.88274        -0.000487      0.015842     -0.019524
Li	     16.53493      8.27305     -8.25634         0.003082      0.015077     -0.017546
Li	      8.32016      4.04030     -0.20002         0.007540      0.024839     -0.017988
Li	      8.21038      8.24452     -4.33142         0.013067      0.011305     -0.011791
Li	     16.58267      6.00964     -2.05558        -0.000563      0.015447     -0.022576
Li	     -0.05752      6.24309     -2.28973         0.007091      0.023964     -0.012219
Li	      8.32986      6.01482      1.88915         0.011322      0.024261     -0.019256
Li	      8.21084     10.23649     -2.32962         0.009118      0.008466     -0.012185
Li	     16.58540      7.96364     -0.09116        -0.003041      0.017852     -0.017546
Li	     -0.04850      8.19761     -0.31513         0.007629      0.016848     -0.021129
Li	      2.13999      2.09742     -0.07045        -0.001080     -0.001732      0.001625
Li	      2.21604      6.32680     -4.34370         0.001989      0.002697      0.008002
Li	     10.47894      8.29934     -6.31749         0.006632     -0.003269      0.016053
Li	      2.28131      4.13856      1.77858        -0.004458     -0.007989     -0.005862
Li	      2.29780      8.31487     -2.39199         0.027979      0.015737     -0.010896
Li	     10.52538      5.99598     -0.26374        -0.020715      0.017259      0.004776
Li	     10.47523     10.29041     -4.37697        -0.001938     -0.013106      0.010136
Li	      2.15635      5.97619      3.77670        -0.004176     -0.001526     -0.000134
Li	      2.21389     10.26380     -0.42182         0.002302     -0.011150      0.003466
Li	     10.55586      8.20419      1.90766        -0.002619      0.013831     -0.003809
Li	     10.48327     12.26881     -2.38713         0.007850     -0.017478      0.010835
Li	      4.26777      2.19391     -2.02620        -0.014706      0.002637     -0.008897
Li	      5.93519      8.05601     -6.07452         0.013803     -0.009811      0.018862
Li	     14.32048      5.86037     -3.88954        -0.012148     -0.004249      0.004549
Li	     14.27839     10.06477     -8.08408         0.007099     -0.020963      0.018152
Li	      6.00925      5.73795     -0.03588         0.007488      0.000656     -0.003921
Li	      5.94861     10.02139     -4.09597         0.003844     -0.009532      0.017406
Li	     14.32072      7.84070     -1.92739        -0.007890     -0.000555     -0.000973
Li	     14.27042     12.01553     -6.09695         0.011848     -0.016625      0.014316
Li	      6.14958      7.86947      1.94693         0.006736     -0.011375      0.014904
Li	      5.93341     11.99076     -2.13237         0.008449     -0.014647      0.012641
Li	     14.31948      9.80460      0.05021        -0.001752     -0.006957     -0.002483
Li	     14.26552     13.98385     -4.13042         0.011894     -0.020655      0.015929
Ni	      0.00518      7.93804      3.87348        -0.103453     -0.037960      0.046277
Ni	     -0.13690      6.24202     -6.23507        -0.132295     -0.044769      0.039085
Ni	      8.29534      4.10033     -4.05456        -0.139695     -0.044028      0.012854
Ni	      8.19582     14.14629     -2.31817        -0.150838     -0.044906      0.045786
Ni	     -0.02622      4.00075     -0.06722        -0.129312     -0.049309      0.018710
Ni	     16.50000     12.20891     -8.25619        -0.130158     -0.039457      0.043816
Ni	      8.24581      6.08511     -2.13602        -0.074896     -0.052757      0.089528
Ni	      8.19535     10.20094     -6.25850        -0.150585     -0.047195      0.036520
Ni	     -0.04328      5.96253      1.91254        -0.139467     -0.052968      0.047448
Ni	     -0.13659     10.18041     -2.29232        -0.136760     -0.042198      0.038574
Ni	      8.26749      8.05145     -0.12900        -0.125119     -0.073138      0.063133
Ni	      8.20349     12.16600     -4.27378        -0.150942     -0.048373      0.052957
Ni	      2.04272      4.08205     -2.10635        -0.072752     -0.013567     -0.013193
Ni	      2.01604      8.23606     -6.25585        -0.056545     -0.003629     -0.006720
Ni	     10.41796      6.06619     -4.10973        -0.029298      0.005460      0.043928
Ni	     10.34284     10.22757     -8.25103        -0.063041      0.001535     -0.007637
Ni	      2.05817      6.03210     -0.12559        -0.029826      0.005877      0.000885
Ni	      2.00963     10.21209     -4.29468        -0.046890      0.021237     -0.007543
Ni	     10.38106      8.04351     -2.11722         0.025058      0.011790      0.009764
Ni	     10.35476     12.18787     -6.26441        -0.060802     -0.007207      0.016779
Ni	      2.07446      7.99772      1.83484        -0.052888      0.008847     -0.003550
Ni	      2.01626     12.17598     -2.31784        -0.061731     -0.002716     -0.002293
Ni	     10.39876     10.02439     -0.16411        -0.018452     -0.029983     -0.055422
Ni	     10.35321     14.16121     -4.30214        -0.063307     -0.018367      0.010143
Ni	      4.07757      4.12927     -4.10945        -0.001386      0.006694      0.040147
Ni	      3.98746     14.22248     -2.39221        -0.014857     -0.003178     -0.002100
Ni	     12.40020     12.04308     -0.22641         0.012567     -0.000794     -0.010274
Ni	     12.29977     10.31053    -10.29286        -0.023244     -0.022938     -0.001516
Ni	      4.09343      6.06310     -2.10969         0.100857     -0.008401      0.000515
Ni	      3.99502     10.28647     -6.34317        -0.014998      0.022689      0.007030
Ni	     12.38603      8.09215     -4.16846        -0.014106     -0.003761     -0.000158
Ni	     12.29508     12.27740     -8.33146        -0.027359     -0.001473      0.026935
Ni	      4.10888      8.03761     -0.13476         0.075796      0.021076     -0.017553
Ni	      3.99381     12.25801     -4.36614        -0.010814     -0.017180     -0.018181
Ni	     12.38949     10.06511     -2.18954        -0.064311     -0.023127      0.006339
Ni	     12.29339     14.25259     -6.36113        -0.021898     -0.001535     -0.000719
Ni	      6.10360      6.17996     -4.18657         0.055221      0.041146     -0.020139
Ni	      6.01481     10.35456     -8.36781         0.042971      0.044136     -0.070166
Ni	     14.37537      8.17459     -6.20392         0.144838     -0.012381      0.003144
Ni	     14.27496     12.35204    -10.37111         0.087873      0.030058     -0.033031
Ni	      6.16409      8.14942     -2.21077         0.046360      0.031451     -0.026495
Ni	      6.02846     12.31124     -6.38441         0.026486      0.040843     -0.002465
Ni	     14.41547     10.12660     -4.21814         0.051284      0.029671     -0.036017
Ni	     14.27794     14.32626     -8.40606         0.063033      0.023742     -0.028853
Ni	      6.10771     10.12625     -0.25693         0.061967      0.022367     -0.030229
Ni	      6.01168     14.26998     -4.43664         0.045047      0.021071     -0.036054
Ni	     14.42232     12.10093     -2.24771         0.067098      0.017452     -0.019587
Ni	     14.28225     16.29714     -6.43313         0.065001      0.030859     -0.025453
O	      3.91048      4.16903     -2.22137         0.229012     -0.130128      0.100350
O	      4.04256      8.42860     -6.44788         0.124512     -0.124340      0.120981
O	     12.43683      6.23809     -4.27833         0.145981     -0.116527      0.111073
O	     12.37129     10.42336     -8.43848         0.135123     -0.117868      0.118347
O	      4.10568      6.18415     -0.26258         0.114791     -0.169911      0.171688
O	      4.04851     10.40444     -4.49105         0.116647     -0.125076      0.124040
O	     12.39609      8.19512     -2.30369         0.127330     -0.103823      0.109385
O	     12.37517     12.39717     -6.46518         0.128643     -0.117375      0.102143
O	      4.12558      8.18374      1.75611         0.100355     -0.137333      0.165885
O	      4.04428     12.36973     -2.50817         0.123908     -0.124770      0.127150
O	     12.42675     10.18489     -0.33070         0.134808     -0.128310      0.109971
O	     12.37523     14.35809     -4.50615         0.131550     -0.107050      0.119297
O	      5.96842      4.26828     -4.26342         0.156248     -0.113574      0.128113
O	      5.86077      8.43827     -8.42256         0.108639     -0.116757      0.103327
O	     14.30004      6.25462     -6.24543         0.075426     -0.116052      0.116490
O	     14.17995     10.44229    -10.42786         0.091586     -0.110347      0.111385
O	      6.29200      6.25102     -2.26135        -0.138898     -0.103193      0.109055
O	      5.87092     10.38739     -6.45003         0.125581     -0.111886      0.102578
O	     14.28621      8.21095     -4.28612         0.078051     -0.113469      0.106932
O	     14.17386     12.41359     -8.46304         0.086352     -0.108205      0.107599
O	      6.30291      8.19719     -0.28498        -0.092699     -0.097962      0.132391
O	      5.86990     12.36243     -4.47038         0.113187     -0.105624      0.124812
O	     14.26826     10.17276     -2.29810         0.105012     -0.114921      0.104503
O	     14.17284     14.38724     -6.49599         0.087657     -0.106840      0.108798
O	      4.08060      5.98439     -3.97558        -0.103518      0.121175     -0.153592
O	      3.91962     10.17034     -8.22510        -0.088553      0.112354     -0.123798
O	     12.37577      7.98554     -6.02411        -0.114347      0.119419     -0.128961
O	     12.25383     12.15865    -10.17669        -0.098249      0.134013     -0.131694
O	      4.16216      7.92705     -2.00268        -0.088110      0.153054     -0.138398
O	      3.95352     12.13828     -6.22063        -0.091518      0.126001     -0.125952
O	     12.34951      9.94648     -4.04391        -0.085869      0.130534     -0.135983
O	     12.23164     14.13698     -8.21938        -0.103573      0.114479     -0.118302
O	      4.08464      9.91190     -0.04503        -0.093373      0.143357     -0.156388
O	      3.91883     14.13506     -4.25014        -0.082195      0.124025     -0.120963
O	     12.37061     11.91911     -2.08179        -0.084660      0.130545     -0.126503
O	     12.23963     16.10800     -6.24265        -0.106356      0.122993     -0.114497
O	      6.24352      7.78419      3.98176         0.005524      0.171178     -0.136931
O	      6.23810      6.08325     -6.06424         0.003379      0.170216     -0.159783
O	     14.64972      3.90463     -3.89996         0.005002      0.154169     -0.150319
O	     14.60730      8.06342     -8.04831         0.024291      0.144050     -0.178226
O	      6.39780      3.85207      0.12131         0.017692      0.159991     -0.191245
O	      6.27505      8.04704     -4.08247         0.016383      0.144509     -0.184142
O	     14.64296      5.87371     -1.93547         0.006821      0.154445     -0.157267
O	     14.61827     10.01885     -6.08925         0.020163      0.172703     -0.148157
O	      6.38970      5.84452      2.02953         0.012422      0.141924     -0.146488
O	      6.27539     10.02144     -2.12177         0.003559      0.165933     -0.148714
O	     14.64421      7.84821      0.03514         0.008043      0.155584     -0.159852
O	     14.61760     11.99184     -4.10619         0.017248      0.154518     -0.159135
O	     -0.00216      2.11944     -0.15453         0.007888     -0.151230      0.146977
O	     16.45305     10.32516     -8.34805        -0.019253     -0.143313      0.150675
O	      8.25266      4.23762     -2.21389        -0.006243     -0.219033      0.220256
O	      8.14478      8.31894     -6.34437        -0.015728     -0.142140      0.138804
O	     16.55871      8.07291     -2.17772        -0.001094     -0.149678      0.156921
O	     16.43132     12.29696     -6.37674        -0.034387     -0.146540      0.143746
O	      8.24884      6.17050     -0.25503         0.023089     -0.148727      0.177101
O	      8.17780     10.27729     -4.36670        -0.014728     -0.132760      0.133514
O	     16.61213     10.05299     -0.19145         0.004888     -0.154230      0.146263
O	     16.45284     14.26662     -4.39915        -0.008696     -0.141392      0.140003
O	      8.22812      8.12539      1.75194        -0.029258     -0.150912      0.169423
O	      8.16680     12.25756     -2.38885        -0.012479     -0.130303      0.129069
O	      1.98567      4.13913     -0.24019         0.097553     -0.143889      0.184195
O	      1.88537      8.32802     -4.36908         0.100391     -0.142864      0.135785
O	     10.12898      6.15892     -2.19955         0.188659     -0.134411      0.074554
O	     10.20111     10.29916     -6.37139         0.101836     -0.149193      0.144641
O	      1.95902      6.09350      1.76476         0.119043     -0.122100      0.153252
O	      1.88767     10.28561     -2.40673         0.093415     -0.132636      0.132957
O	     10.13136      8.08685     -0.12184         0.205538     -0.089107      0.118457
O	     10.21354     12.28218     -4.38609         0.088338     -0.143803      0.147888
O	      2.08090      2.19086     -2.18187         0.084984     -0.138337      0.153863
O	      1.88206     12.26166     -0.43410         0.101748     -0.132078      0.143759
O	     10.29351     10.13889      1.66562         0.069637     -0.157248      0.193750
O	     10.20331      8.34645     -8.32622         0.085307     -0.144874      0.151461
O	      0.10658      3.94376     -2.01592        -0.173717      0.101793     -0.096248
O	     16.46943     12.14451    -10.16174        -0.035220      0.134860     -0.131500
O	      8.26949      6.00561     -4.01851        -0.024953      0.134931     -0.150898
O	      8.12637     10.13503     -8.17476         0.016147      0.130479     -0.122072
O	     16.50893      9.87022     -3.96658        -0.004509      0.131392     -0.128166
O	     16.46539     14.11456     -8.19140        -0.019475      0.133147     -0.126735
O	      8.31925      7.98645     -2.02490        -0.057517      0.147564     -0.143207
O	      8.14396     12.09235     -6.16529         0.013446      0.142580     -0.142303
O	     16.55339     11.86188     -1.99898        -0.016416      0.119369     -0.138837
O	     16.46577     16.07951     -6.22350        -0.013613      0.127156     -0.136958
O	      8.27792      9.93214     -0.05226        -0.039127      0.158637     -0.132945
O	      8.13015     14.07056     -4.21143         0.011906      0.127263     -0.149364
O	      2.14938      4.03461     -4.00238        -0.138005      0.066064     -0.151500
O	      2.08924      8.18020     -8.17070        -0.089204      0.112423     -0.113858
O	     10.52704     11.96737     -0.14184        -0.087193      0.118987     -0.110876
O	     10.41937     16.04345     -4.24829        -0.080902      0.132804     -0.111440
O	      1.98365      5.95077     -2.02495        -0.078570      0.146839     -0.126389
O	      2.09470     10.15975     -6.21304        -0.110869      0.094490     -0.114374
O	     10.50570      7.96095     -4.11878        -0.075994      0.147667     -0.125231
O	     10.41112     12.13626     -8.14557        -0.081553      0.111671     -0.138462
O	      2.00671      7.93064     -0.03945        -0.080765      0.127030     -0.149031
O	      2.09152     12.12790     -4.23704        -0.093411      0.117453     -0.106708
O	     10.49439      9.96717     -2.06476        -0.068629      0.177404     -0.136663
O	     10.40807     14.10678     -6.21899        -0.077343      0.114530     -0.105044
