# total energy = -90.74659057 eV
 
CRYSTAL
PRIMVEC
4.174100 -0.000019 -0.004914 
0.004923 -0.000014 -4.174101 
2.089620 7.895279 -2.089588 
PRIMCOORD
16 1
Li	      2.09193      1.97569     -4.17234         0.001485     -0.000253     -0.000193
Li	      2.09210      5.92324     -4.17454         0.000352      0.001124      0.004620
Li	      4.17674      1.97549     -2.08849         0.000134      0.001301      0.002744
Li	      4.17812      5.92318     -2.08862        -0.002576      0.000424      0.001566
Mn	      6.26809      7.89500     -6.26452         0.014389     -0.033145     -0.015615
Mn	      4.17994      3.95133     -4.17613        -0.013697      0.032342      0.011973
Ni	      4.17850      7.88101     -4.17487        -0.000438     -0.041707      0.000520
Ni	      2.09051      3.96544     -2.08647         0.000275      0.039119     -0.001553
O	      4.17710      3.94712     -2.08853        -0.000193     -0.022218     -0.004157
O	      2.09043      6.01560     -2.08699        -0.011817      0.091998      0.012236
O	      4.17903      1.97558     -4.17514         0.000662     -0.000299     -0.001084
O	      2.09234      3.94719     -4.17317         0.001944     -0.022623     -0.001472
O	      2.09196      0.00397     -4.17267        -0.002464      0.023185     -0.000328
O	      4.17903      5.83071     -4.17563         0.011973     -0.092298     -0.010704
O	      4.17629      0.00394     -2.08841         0.000043      0.022694      0.003029
O	      2.08952      1.97562     -2.08540        -0.000073      0.000354     -0.001581
