# total energy = -855.97061171 eV
 
CRYSTAL
PRIMVEC
-0.000077 5.926391 5.926793 
16.848429 4.008326 -4.008905 
-0.074334 8.157003 -8.157055 
PRIMCOORD
180 1
Li	      8.39320      2.04985     -2.04346         0.010184      0.016575     -0.014631
Li	      8.44225      6.15442     -6.15037         0.005969      0.018364     -0.019707
Li	     16.80911      4.06617     -4.06501         0.002717      0.028201     -0.021087
Li	      8.40088      4.01543     -0.06143         0.007798      0.013027     -0.018260
Li	      8.43217      8.12523     -4.17354         0.012628      0.016377     -0.019701
Li	     16.81364      6.04442     -2.09149         0.004259      0.017388     -0.021717
Li	      8.39878      5.99370      1.90174         0.006051      0.018814     -0.017025
Li	      8.43676     10.09946     -2.20133         0.012062      0.023411     -0.019950
Li	     16.81265      8.01957     -0.12027         0.001334      0.019737     -0.017259
Li	      2.03395      2.03328     -0.05300        -0.001501     -0.006184      0.009354
Li	     10.54053      4.01309     -2.02555         0.022730     -0.002024     -0.002372
Li	     10.82050      8.21557     -6.22796         0.012079      0.004168      0.002580
Li	      2.03776      4.00147      1.92347        -0.008615      0.006622     -0.005522
Li	     10.54337      5.97978     -0.06104         0.017987     -0.004232      0.003657
Li	     10.80800     10.17377     -4.26151         0.016019     -0.004448      0.008259
Li	      2.03138      5.98170      3.89447         0.004162     -0.004186      0.002082
Li	     10.51921      7.95647      1.91805         0.014972      0.002459      0.001953
Li	     10.82925     12.16826     -2.28888         0.019119      0.003894     -0.008304
Li	      4.17785      2.04408     -2.03946        -0.011429     -0.006607      0.005468
Li	      3.81141      5.96275     -5.96170        -0.017687      0.005806     -0.005671
Li	     12.69646      3.99081     -3.98802        -0.001727     -0.006233      0.007468
Li	      4.18568      4.01650     -0.05839        -0.022054     -0.003111      0.001409
Li	      3.86943      7.95738     -4.00797        -0.006113      0.003974      0.000477
Li	     12.69783      5.97496     -2.01477        -0.002625     -0.012639      0.006602
Li	      4.17992      5.98598      1.90557        -0.028132      0.000782      0.002721
Li	      3.86483      9.93419     -2.02846        -0.016184     -0.002892     -0.006865
Li	     12.69190      7.93909     -0.04614         0.002035     -0.006300      0.009603
Li	      6.32018      4.00477     -2.02135        -0.011075     -0.022296      0.022839
Li	      6.20668      8.02564     -6.05199        -0.007281     -0.013158      0.009029
Li	     14.76673      5.94634     -3.96123         0.004050     -0.039921      0.034694
Li	      6.32530      5.97618     -0.05075        -0.008773     -0.021120      0.021941
Li	      6.21746     10.00553     -4.08009        -0.004523     -0.007652      0.011756
Li	     14.76742      7.92428     -1.99824         0.002685     -0.026235      0.026567
Li	      6.32229      7.95214      1.91998        -0.014001     -0.022444      0.021594
Li	      6.21098     11.98368     -2.10130         0.001371     -0.010695      0.009185
Li	     14.76560      9.88986     -0.01884         0.003670     -0.036420      0.042093
Ni	     16.80749      6.02990     -6.02931        -0.009679     -0.045250      0.039918
Ni	     16.75187     10.10222    -10.10253        -0.178565     -0.092302      0.178634
Ni	      8.45617      4.02942     -4.02795        -0.015940     -0.032406      0.036154
Ni	      8.36381      8.10866     -8.10470        -0.039039     -0.055318      0.024412
Ni	     16.81880      8.00045     -4.04892        -0.007311      0.012445      0.062523
Ni	     16.76683     12.03111     -8.07903        -0.152608     -0.255189     -0.130649
Ni	      8.45555      6.00298     -2.05152        -0.012423     -0.043847      0.041358
Ni	      8.35038     10.07443     -6.12256        -0.044947     -0.054174      0.041104
Ni	     16.81885      9.97670     -2.07467        -0.008001     -0.066503     -0.008272
Ni	     16.76474     14.00078     -6.11032        -0.183071      0.110627      0.181081
Ni	      8.45487      7.98063     -0.07866        -0.014148     -0.040108      0.040952
Ni	      8.36327     12.05576     -4.15670        -0.043552     -0.025813      0.060087
Ni	      2.02986      4.10187     -2.12135        -0.058539     -0.024022     -0.024995
Ni	      1.94922      8.15819     -6.17671        -0.027872     -0.013122     -0.030420
Ni	     10.59434      6.04270     -4.06956        -0.030736      0.013384     -0.023951
Ni	     10.48747     10.11541     -8.13622        -0.076135     -0.005640      0.005895
Ni	      2.02570      6.06272     -0.13588        -0.107193     -0.033589      0.045774
Ni	      1.96378     10.13722     -4.21099        -0.055532     -0.019393      0.017551
Ni	     10.59323      8.01587     -2.08877        -0.032976      0.022136     -0.023825
Ni	     10.49233     12.08960     -6.16290        -0.067147     -0.019428      0.001840
Ni	      2.02965      8.04919      1.82626        -0.054351      0.025092      0.021210
Ni	      1.94326     12.10463     -2.23347        -0.033799      0.031994      0.010949
Ni	     10.59261      9.99776     -0.11581        -0.026421      0.030442     -0.017730
Ni	     10.46257     14.07895     -4.19992        -0.085749     -0.007977      0.026985
Ni	      4.15439      4.07294     -4.07204         0.112874     -0.003894      0.007049
Ni	      4.06091      8.14997     -8.14950         0.008321     -0.009555      0.008092
Ni	     12.71606      6.03015     -6.02905         0.052602     -0.011419      0.002196
Ni	     12.58540     10.08637    -10.08220         0.059754     -0.005329      0.008202
Ni	      4.13852      6.04854     -2.09846         0.029327      0.012074     -0.001237
Ni	      4.06153     10.12641     -6.17917         0.036320     -0.013707      0.002676
Ni	     12.70697      8.00103     -4.04526         0.056121     -0.010935     -0.000528
Ni	     12.62125     12.07428     -8.12409         0.036231      0.001644     -0.012732
Ni	      4.13848      8.02490     -0.12051         0.042946      0.002270     -0.009606
Ni	      4.05853     12.10626     -4.19903         0.037744     -0.002400      0.016409
Ni	     12.70652      9.97318     -2.07385         0.051561      0.001030      0.021448
Ni	     12.59443     14.04475     -6.14496         0.078743      0.015402      0.000069
Ni	      6.29212      6.08073     -4.10284         0.060083      0.041192     -0.067372
Ni	      6.19762     10.16351     -8.18996         0.028790      0.037910     -0.053636
Ni	     14.75486      8.07726     -6.10393         0.171450      0.081076      0.004113
Ni	     14.69130     12.15482    -10.17580        -0.001686      0.041811     -0.073652
Ni	      6.29254      8.05549     -2.12828         0.052816      0.063054     -0.059134
Ni	      6.19580     12.14110     -6.21188         0.036385      0.053941     -0.043025
Ni	     14.75720     10.07949     -4.15249         0.080594      0.115869     -0.111294
Ni	     14.67721     14.13737     -8.20872         0.049726      0.051155     -0.050257
Ni	      6.29266     10.03078     -0.15476         0.059763      0.064668     -0.041847
Ni	      6.16770     14.12288     -4.24487         0.090559      0.041839     -0.034965
Ni	     14.75489     12.03182     -2.14963         0.172090      0.003861     -0.092066
Ni	     14.69180     16.09604     -6.22500        -0.005980      0.075418     -0.045130
O	      4.16739      4.14724     -2.17546         0.084068     -0.126596      0.144779
O	      4.03271      8.21437     -6.25231         0.153228     -0.086128      0.135964
O	     12.68874      6.10107     -4.12925         0.060967     -0.108632      0.106914
O	     12.45011     10.21674     -8.23883         0.148285     -0.046606      0.085499
O	      4.13389      6.11287     -0.18343         0.129705     -0.090323      0.088095
O	      4.04345     10.21049     -4.28250         0.135890     -0.119177      0.104430
O	     12.67705      8.06917     -2.14172         0.066449     -0.094287      0.106848
O	     12.46210     12.20604     -6.27272         0.066794     -0.108760      0.072460
O	      4.16683      8.10229      1.78200         0.083222     -0.150958      0.131761
O	      4.02482     12.17907     -2.28890         0.115127     -0.129700      0.106148
O	     12.68690     10.05815     -0.17352         0.060148     -0.110905      0.103588
O	     12.31873     14.14188     -4.26342         0.189470     -0.096711      0.074220
O	      6.27955      4.16273     -4.16090         0.035930     -0.120531      0.113603
O	      6.21237     14.18123     -2.34705         0.014721     -0.111448      0.122480
O	     14.76420      6.16012     -6.16040         0.015479     -0.050598      0.070571
O	     14.79675     16.16629     -4.32262         0.016371     -0.019303      0.029220
O	      6.31293      6.14280     -2.18914        -0.017568     -0.132989      0.129502
O	      6.19161     10.23279     -6.28259         0.021003     -0.118062      0.126989
O	     14.77026      8.14972     -4.19408        -0.021963     -0.068148      0.054557
O	     14.69935     12.26230     -8.31450        -0.073625     -0.088608      0.151129
O	      6.31154      8.11797     -0.21698        -0.014261     -0.130667      0.132053
O	      6.21212     12.22566     -4.30284         0.018906     -0.122841      0.108707
O	     14.77026     10.12062     -2.22126        -0.022021     -0.065018      0.072677
O	     14.69608     14.23484     -6.33099        -0.083588     -0.134310      0.074725
O	      4.26254      5.95772     -3.99396        -0.073836      0.173335     -0.103006
O	      4.08650     10.05564     -8.08510        -0.047190      0.142664     -0.132203
O	     12.82472      7.91506     -5.94083         0.026617      0.124661     -0.104814
O	     12.64732     11.99147    -10.04470        -0.164083      0.114274     -0.089507
O	      4.25830      7.93269     -2.00598        -0.061487      0.146526     -0.151325
O	      4.09148     12.04055     -6.10793        -0.049314      0.119654     -0.136528
O	     12.74198      9.86398     -3.93619        -0.120694      0.125969     -0.137330
O	     12.63328     13.99720     -8.07201        -0.168087      0.110327     -0.112448
O	      4.26177      9.91886     -0.02994        -0.072611      0.100680     -0.168007
O	      4.08618     14.01288     -4.13280        -0.067374      0.134127     -0.141405
O	     12.82384     11.86799     -1.98813        -0.000343      0.093272     -0.100561
O	     12.66298     15.95988     -6.06368        -0.117003      0.104500     -0.120744
O	      6.29617      7.84907      3.99969         0.011358      0.147751     -0.128812
O	      6.33000     11.91301     -0.06169         0.006946      0.133900     -0.135902
O	     14.75837      9.82943      2.02099        -0.007950      0.157287     -0.167485
O	     14.74257      7.92489     -7.92194        -0.102476      0.194417     -0.229118
O	      6.29087      3.89946      0.05224         0.004850      0.141007     -0.139146
O	      6.30901      7.96365     -4.01197         0.014306      0.142726     -0.138506
O	     14.76126      5.90030     -1.94559        -0.015686      0.124339     -0.144182
O	     14.75600      9.89884     -5.98701        -0.117494      0.121082     -0.117480
O	      6.29832      5.87902      2.02836         0.008069      0.127651     -0.148646
O	      6.31161      9.94252     -2.03948         0.014156      0.135690     -0.134286
O	     14.75762      7.87274      0.03499        -0.014230      0.155061     -0.120820
O	     14.75537     11.91320     -3.97081        -0.121641      0.116248     -0.112845
O	     16.82152      6.11275     -4.13791         0.009892     -0.150309      0.129046
O	     16.77759     10.21366     -8.27849         0.097764     -0.126505      0.119611
O	      8.43875      4.10835     -2.13565        -0.009331     -0.117927      0.128811
O	      8.31363      8.19266     -6.21690        -0.025293     -0.146421      0.128106
O	     16.83170      8.08287     -2.15529         0.012272     -0.150904      0.157827
O	     16.77871     12.14344     -6.22936         0.109680     -0.108662      0.173068
O	      8.43997      6.08551     -0.15868        -0.007232     -0.126340      0.128387
O	      8.31790     10.16577     -4.23831        -0.029032     -0.123809      0.137203
O	     16.82257     10.06677     -0.18671         0.007168     -0.141629      0.150156
O	     16.77154     14.20311     -4.29387         0.122169     -0.194928      0.135963
O	      8.43210      8.06751      1.81341        -0.011002     -0.129642      0.124763
O	      8.33958     12.15572     -2.27898        -0.021439     -0.140528      0.146956
O	      1.99899      4.14283     -0.20948         0.163960     -0.112012      0.090871
O	      1.95259      8.26797     -4.32294         0.143095     -0.095315      0.173659
O	     10.56796      6.10692     -2.15815         0.039312     -0.132737      0.112636
O	     10.37815     10.18599     -6.23703         0.076601     -0.136882      0.152574
O	      1.99849      6.13668      1.78396         0.158958     -0.084005      0.113906
O	      1.94368     10.25103     -2.34086         0.161546     -0.173413      0.110420
O	     10.56637      8.08536     -0.17927         0.036480     -0.111368      0.133697
O	     10.40507     12.19764     -4.28118         0.079244     -0.151411      0.154642
O	      1.98238      2.18906     -2.18810         0.112316     -0.088592      0.094102
O	      1.82681     12.18118     -0.33685         0.065267     -0.075608      0.060744
O	     10.56595     10.06269      1.78965         0.033699     -0.131660      0.133661
O	     10.40592     14.15913     -2.31680         0.066744     -0.169656      0.150222
O	     16.70712      7.92287     -5.95039        -0.137565      0.054793     -0.085458
O	     16.74356     12.00911    -10.04273         0.014712      0.077734      0.026337
O	      8.45752      5.93334     -3.95881        -0.033246      0.123227     -0.112696
O	      8.35164     10.01252     -8.03877        -0.043438      0.139977     -0.108227
O	     16.80163      9.88856     -3.96301         0.051675     -0.044755      0.045495
O	     16.74270     13.95828     -8.03542         0.020516      0.096065     -0.022421
O	      8.46388      7.91060     -1.98507        -0.037177      0.116668     -0.114605
O	      8.34501     11.98639     -6.05802        -0.009034      0.132600     -0.148698
O	     16.70770     11.87804     -1.99769        -0.096291      0.081809     -0.033165
O	     16.72982     15.98162     -6.08944         0.024593     -0.047539     -0.169274
O	      8.45667      9.88999     -0.00708        -0.035965      0.114061     -0.129361
O	      8.49064     13.99285     -4.11194        -0.138962      0.090703     -0.099206
O	      2.20791      3.98633     -3.98471        -0.134698      0.057399     -0.071790
O	      1.95825      8.07527     -8.07442        -0.059372      0.152262     -0.148541
O	     10.63264      5.98501     -5.98147        -0.142011      0.094808     -0.094957
O	     10.45268     15.95695     -4.12751        -0.066359      0.150781     -0.135772
O	      2.14967      5.94743     -1.98554        -0.035774      0.103700     -0.138268
O	      1.97082     10.06660     -6.11287        -0.052429      0.101906     -0.140329
O	     10.62012      7.94005     -3.99710        -0.140796      0.121294     -0.101655
O	     10.44893     12.00664     -8.05517        -0.051953      0.154762     -0.140837
O	      2.15163      7.91442     -0.01977        -0.039998      0.128450     -0.092952
O	      1.96578     12.04075     -4.13802        -0.063930      0.129170     -0.080698
O	     10.61808      9.92384     -2.01323        -0.130637      0.108064     -0.133713
O	     10.44321     14.00973     -6.07587        -0.055794      0.126665     -0.155674
