# total energy = -857.54267044 eV
 
CRYSTAL
PRIMVEC
0.000046 5.918062 5.918360 
16.863752 4.014081 -4.014299 
-0.092097 8.204168 -8.204084 
PRIMCOORD
180 1
Li	      8.41874      2.08671     -2.08440        -0.009997      0.023849     -0.023554
Li	      8.55396      6.22787     -6.18192         0.010658      0.012455     -0.019765
Li	     16.81630      4.04766     -4.03841         0.006700      0.008033     -0.004927
Li	      8.41566      4.05672     -0.10999        -0.005588      0.020525     -0.022322
Li	      8.69569      8.23942     -4.29358         0.006338      0.014191     -0.016821
Li	     16.81626      6.01075     -2.07290         0.006285      0.003422     -0.010678
Li	      8.41755      6.02961      1.85894        -0.004517      0.024120     -0.023203
Li	      8.54622     10.12815     -2.28048         0.011348      0.020947     -0.015159
Li	     16.81525      7.98976     -0.09978        -0.002885      0.014990     -0.013395
Li	      2.04518      2.00552     -0.03157         0.015018     -0.015507      0.012334
Li	     10.53066      4.03916     -2.08329         0.009230      0.001888      0.001343
Li	      2.03945      3.97615      1.94388         0.013256     -0.012344      0.011392
Li	      1.80148      7.89884     -2.13036        -0.007717      0.014201     -0.008994
Li	     10.53339      6.02817     -0.09323         0.004535      0.001712     -0.000499
Li	      2.03812      5.94809      3.91386         0.015492     -0.014192      0.017254
Li	      1.79615     10.02266     -0.00726        -0.003960      0.005406     -0.009400
Li	     10.53196      7.98986      1.87392         0.006332      0.003818     -0.003359
Li	     10.86610     12.20391     -2.34262         0.052232      0.024769     -0.022011
Li	      4.20902      2.06500     -2.05460         0.000079     -0.003246      0.005784
Li	      4.03879      6.08650     -6.05694        -0.011719      0.005164     -0.002628
Li	     12.67196      9.92504      1.90524         0.002816      0.004838     -0.004901
Li	      4.20908      4.02872     -0.09232         0.001148     -0.006178      0.002713
Li	      4.03490      8.02474     -4.11276        -0.008310      0.000056     -0.007022
Li	     12.66706      5.98210     -2.03469         0.001176      0.006985     -0.009084
Li	      4.21018      6.00344      1.88692         0.003498     -0.004070      0.004489
Li	      4.20560     10.05781     -2.16161        -0.024852      0.009629     -0.008425
Li	     12.67659      7.95256     -0.05638         0.003380      0.009233     -0.005093
Li	      6.33713      4.03082     -2.05772        -0.003959     -0.018510      0.020945
Li	      6.26490      8.07761     -6.09419        -0.013210     -0.008721      0.011572
Li	     14.74744      5.93202     -3.95354         0.003659     -0.015679      0.016563
Li	      6.33478      6.00223     -0.08572        -0.000202     -0.020420      0.020010
Li	      6.27542     10.03911     -4.14504        -0.011794     -0.011535      0.006982
Li	     14.75260      7.89418     -1.98263        -0.004317     -0.017226      0.016853
Li	      6.33518      7.97562      1.89010        -0.001330     -0.019162      0.018525
Li	      6.32128     12.02976     -2.15282        -0.022665     -0.007257      0.012140
Li	     14.75489      9.86917     -0.00311        -0.004622     -0.014891      0.014516
Ni	     16.81427      6.01444     -6.01292        -0.015048     -0.050292      0.048773
Ni	     16.70735     10.15300    -10.14125        -0.041960      0.011979     -0.068599
Ni	      8.45926      9.97913      1.85580        -0.023864     -0.036123      0.041321
Ni	      8.41826      8.14223     -8.13407        -0.087143     -0.032042      0.012172
Ni	     16.81702      7.98624     -4.04125        -0.002558     -0.058137      0.060098
Ni	     16.70815     12.11537     -8.17834        -0.039747      0.058566     -0.010120
Ni	      8.46329      6.03847     -2.09050        -0.034749     -0.036995      0.034613
Ni	      8.43059     10.10353     -6.15850        -0.089349     -0.017193      0.023971
Ni	     16.81654      9.95661     -2.06624        -0.015145     -0.042629      0.043272
Ni	     16.71108     14.13139     -6.23965        -0.055131     -0.031534      0.026094
Ni	      8.45885      8.00813     -0.11695        -0.034888     -0.043065      0.041794
Ni	      8.41911     12.08077     -4.19616        -0.085190     -0.020309      0.029583
Ni	      2.01034      4.10494     -2.13254        -0.086848     -0.009244      0.014042
Ni	      1.98806      8.17340     -6.19986        -0.059819     -0.011850     -0.000185
Ni	     10.60712      6.04623     -4.07947        -0.017778     -0.030289     -0.014915
Ni	     10.45743     10.16806     -8.19448        -0.061652     -0.022722     -0.043036
Ni	      2.04052      6.05202     -0.12473        -0.095722     -0.027361      0.037356
Ni	      1.96321     10.14521     -4.22574        -0.003657      0.019061      0.025082
Ni	     10.60691      8.02622     -2.10083        -0.013231      0.009749      0.022358
Ni	     10.45682     12.13811     -6.22065        -0.052936      0.046491      0.016264
Ni	      2.04064      8.01645      1.83988        -0.093930     -0.039281      0.020458
Ni	      1.96219     12.11779     -2.25393        -0.001094     -0.021637     -0.012149
Ni	     10.61328      9.99230     -0.12906        -0.029693     -0.019085      0.030638
Ni	     10.42948     14.14546     -4.27885        -0.048131      0.039187     -0.041313
Ni	      4.15913      4.08340     -4.08045         0.050904      0.008995     -0.009747
Ni	      4.08605     14.10753     -2.27633         0.009010     -0.003709      0.012934
Ni	     12.70091      6.06159     -6.05312         0.011545      0.003984     -0.030357
Ni	     12.52194     16.08414     -4.24850         0.095925      0.033316     -0.017416
Ni	      4.15950      6.05309     -2.11011         0.048844      0.015396     -0.008189
Ni	      4.08572     10.16825     -6.21806         0.007658     -0.005696      0.009578
Ni	     12.68223      8.05156     -4.10510        -0.018186      0.016150     -0.010143
Ni	     12.53309     12.13480     -8.18590         0.087704      0.016753     -0.025312
Ni	      4.16006      8.02751     -0.13570         0.056969      0.007922     -0.014666
Ni	      4.08639     12.13721     -4.24414         0.002200     -0.002084     -0.005629
Ni	     12.70298      9.99769     -2.11540         0.012196      0.025132     -0.004747
Ni	     12.50437     14.10177     -6.21145         0.149825      0.020007     -0.021433
Ni	      6.29762      6.11374     -4.13910         0.067628      0.052340     -0.060504
Ni	      6.19136     10.22219     -8.24994         0.087737      0.038367     -0.048271
Ni	     14.76402      8.04586     -6.07132         0.092636      0.013558     -0.013687
Ni	     14.61753     12.21738    -10.24306         0.053042      0.092144     -0.095952
Ni	      6.28949      8.08774     -2.17312         0.042744      0.053120     -0.049747
Ni	      6.19295     12.19670     -6.27740         0.080411      0.045437     -0.045804
Ni	     14.76596     10.01858     -4.10192         0.080275      0.021879     -0.031192
Ni	     14.64296     14.18047     -8.26855         0.017590      0.085350     -0.038124
Ni	      6.29158     10.06214     -0.19597         0.049056      0.056691     -0.047466
Ni	      6.19609     14.17130     -4.30695         0.077834      0.052462     -0.044746
Ni	     14.76147     12.00055     -2.13646         0.015960      0.035723     -0.025674
Ni	     14.64283     16.16026     -6.28972         0.013449      0.042228     -0.086318
O	      4.17809      4.14710     -2.17296         0.066524     -0.118277      0.117565
O	      4.08878      8.27020     -6.29768         0.121944     -0.113822      0.123023
O	     12.67835      6.14044     -4.16609         0.072029     -0.137453      0.171184
O	     12.30226     10.27264     -8.30353         0.147287     -0.107699      0.116627
O	      4.18361      6.11731     -0.19492         0.083836     -0.108144      0.110446
O	      4.06774     10.23916     -4.29741         0.082544     -0.134392      0.118643
O	     12.68077      8.11002     -2.19217         0.072171     -0.174442      0.149654
O	     12.30178     12.24046     -6.31922         0.125147     -0.132544      0.122738
O	      4.18046      8.08616      1.77335         0.091576     -0.108374      0.109245
O	      4.06181     12.18859     -2.34506         0.093055     -0.123311      0.131468
O	     12.69289     10.06610     -0.20386         0.081786     -0.139349      0.132343
O	     12.28018     14.22121     -4.35415         0.098000     -0.132749      0.135675
O	      6.33410     10.11966      1.71173         0.002399     -0.122032      0.121928
O	      6.24026     14.23942     -2.41325         0.029283     -0.116656      0.120208
O	     14.75344      6.14239     -6.14051         0.031966     -0.180576      0.205990
O	     14.63787     10.34831    -10.34301        -0.033030     -0.166734      0.162204
O	      6.33107      6.18116     -2.22804         0.002454     -0.118001      0.119539
O	      6.22815     10.30477     -6.35633         0.050342     -0.118652      0.117149
O	     14.75995      8.11288     -4.16623        -0.006690     -0.184101      0.174879
O	     14.63912     12.31503     -8.37361        -0.030217     -0.156123      0.152584
O	      6.31941      8.15386     -0.26372         0.004145     -0.123205      0.122786
O	      6.23851     12.27649     -4.37765         0.026651     -0.121497      0.122685
O	     14.75313     10.08806     -2.19831         0.025484     -0.207077      0.183709
O	     14.77675     14.26454     -6.37328        -0.201745     -0.101831      0.107629
O	      4.26602      5.97103     -4.00061        -0.091675      0.132165     -0.129110
O	      4.11040     10.10602     -8.13576        -0.079328      0.119548     -0.114478
O	     12.89252      7.94649     -5.98139        -0.192854      0.093891     -0.106433
O	     12.57322     12.08343    -10.10545        -0.149745      0.108660     -0.108839
O	      4.18314      7.95823     -2.03426        -0.044487      0.120537     -0.125035
O	      4.09589     12.07164     -6.15440        -0.067262      0.130010     -0.117543
O	     12.89331      9.92759     -3.99993        -0.200443      0.115356     -0.094973
O	     12.58198     14.04526     -8.10689        -0.088786      0.129706     -0.137739
O	      4.18903      9.92944     -0.06789        -0.051368      0.116287     -0.120212
O	      4.09747     14.04611     -4.17890        -0.077972      0.113740     -0.132448
O	     12.84570     11.87574     -2.01213        -0.211804      0.120353     -0.128929
O	     12.58410     15.99962     -6.15998        -0.103035      0.138469     -0.125174
O	      6.34525      1.93444     -1.93039        -0.004062      0.139270     -0.145004
O	      6.27143     11.94471     -0.10939        -0.001720      0.139480     -0.141455
O	     14.72550      3.93265     -3.93028         0.011769      0.144507     -0.149269
O	     14.75883      7.89765     -7.88441         0.025905      0.284804     -0.282298
O	      6.34542      3.90373      0.04187        -0.004024      0.137987     -0.139530
O	      6.23500      7.99611     -4.05188        -0.005431      0.140332     -0.141512
O	     14.72388      5.90547     -1.95838         0.009667      0.134606     -0.143683
O	     14.75113      9.85821     -5.91548         0.017590      0.283823     -0.288700
O	      6.33953      5.87663      2.01158        -0.002625      0.140151     -0.134128
O	      6.26919      9.97910     -2.08598        -0.003092      0.130133     -0.128407
O	     14.73943      7.86766      0.02149         0.019762      0.128178     -0.124723
O	     14.75865     11.83310     -3.95284         0.030711      0.284268     -0.283621
O	     16.84572      6.09928     -4.12697         0.005017     -0.149610      0.164694
O	     16.75518     10.26871     -8.29350         0.016505     -0.256006      0.254181
O	      8.43216      4.14283     -2.16533        -0.003846     -0.121167      0.127731
O	      8.25198      8.23778     -6.26441        -0.030673     -0.149711      0.154820
O	     16.84814      8.06984     -2.15318         0.012831     -0.153305      0.157615
O	     16.75673     12.30569     -6.36189         0.034914     -0.243250      0.228262
O	      8.43096      6.11228     -0.19575        -0.003750     -0.128235      0.127656
O	      8.25745     10.21062     -4.29382        -0.035086     -0.144376      0.146582
O	     16.84509     10.04524     -0.17855         0.010773     -0.157209      0.139216
O	     16.75413     14.25520     -4.41369         0.033870     -0.226584      0.238863
O	      8.43155      8.08515      1.77702         0.000163     -0.132993      0.130790
O	      8.36398     12.17996     -2.31402        -0.036623     -0.141653      0.133305
O	      1.97171      4.14852     -0.21730         0.114916     -0.135287      0.126209
O	      1.96920      8.29350     -4.30991         0.066942     -0.181040      0.144636
O	     10.57183      6.10769     -2.16044         0.044413     -0.136691      0.130171
O	     10.45889     10.29763     -6.35251         0.061231     -0.160774      0.154563
O	      1.97921      6.10874      1.78397         0.083794     -0.116902      0.123327
O	      1.77586     10.18117     -2.28995         0.206830     -0.094145      0.102729
O	     10.57412      8.08586     -0.19992         0.032045     -0.127423      0.150856
O	     10.44059     12.29783     -4.35379         0.066809     -0.127038      0.149634
O	      1.97192      2.18912     -2.17662         0.096103     -0.122849      0.125763
O	      1.96788     12.20179     -0.40249         0.067822     -0.139255      0.182160
O	     10.57461      4.14478     -4.14087         0.040739     -0.147329      0.128599
O	     10.43944     14.21925     -2.43263         0.086040     -0.143012      0.122807
O	     16.69052      7.90055     -5.92811         0.152720      0.116858     -0.104890
O	     16.72699     12.06855    -10.09380         0.029393      0.112018     -0.114001
O	      8.47912      5.96805     -3.99971        -0.045586      0.122426     -0.117219
O	      8.51549     10.05367     -8.07781        -0.114107      0.123528     -0.106104
O	     16.69595      9.87269     -3.95325         0.157670      0.104986     -0.103136
O	     16.74061     14.05666     -8.14319         0.004763      0.093404     -0.162154
O	      8.47789      7.94775     -2.02239        -0.051014      0.116404     -0.123646
O	      8.51571     12.02608     -6.10940        -0.106644      0.109313     -0.119133
O	     16.68645     11.84793     -1.98536         0.198597      0.098827     -0.109402
O	     16.74040     16.03426     -6.16609         0.000907      0.165875     -0.089784
O	      8.47485      9.91406     -0.05206        -0.053454      0.121438     -0.117359
O	      8.49901     14.01525     -4.15183        -0.093399      0.107960     -0.111895
O	      2.14141      9.86710      1.92273        -0.080055      0.144173     -0.136142
O	      1.99654      8.12037     -8.10248        -0.064077      0.133816     -0.148501
O	     10.66566     11.86530     -0.08093        -0.101244      0.138580     -0.095424
O	     10.38885     10.11443    -10.10140        -0.083469      0.100313     -0.117393
O	      2.14199      5.96839     -1.97587        -0.073497      0.134324     -0.141165
O	      1.99822     10.07617     -6.14592        -0.068367      0.144838     -0.131078
O	     10.64731      7.90732     -3.96201        -0.094162      0.144127     -0.145729
O	     10.39059     12.04676     -8.09916        -0.067556      0.145720     -0.141089
O	      2.13981      7.93735     -0.04443        -0.082188      0.129811     -0.120790
O	      1.97526     12.03820     -4.14668        -0.061586      0.136389     -0.130490
O	     10.67026      9.94647     -2.00229        -0.095938      0.097504     -0.145093
O	     10.39324     14.04669     -6.16720        -0.087341      0.111984     -0.107341
