# total energy = -866.40004556 eV
 
CRYSTAL
PRIMVEC
0.001198 5.915657 5.952859 
16.617228 4.137434 -4.159976 
-0.028274 8.321019 -8.372550 
PRIMCOORD
181 1
Li	      8.27736      6.36347     -6.31614         0.003985      0.016839     -0.015398
Li	     16.36298      4.38832     -4.30982         0.020663     -0.002212     -0.000899
Li	     16.59612     14.24294     -2.50969         0.011372      0.029102     -0.025408
Li	      8.21917      4.04699     -0.25926         0.015199      0.028434     -0.021443
Li	      8.26853      8.24462     -4.38368         0.013685      0.019925     -0.017448
Li	     16.56662     10.31117     -6.40103         0.006973      0.024834     -0.025720
Li	      8.18377      6.31349      1.93646         0.016029      0.013188     -0.018774
Li	      8.23521     10.24024     -2.40031         0.012496      0.018917     -0.018830
Li	     16.16157      8.26705     -0.58950        -0.013821      0.025364     -0.009694
Li	     16.54045     12.34904     -4.38867         0.013177      0.028634     -0.031816
Li	      2.01259      2.03258      0.03526        -0.000734     -0.002763      0.008904
Li	      2.20202      6.32184     -4.35379        -0.002639      0.002462      0.002780
Li	     10.21957      3.95992     -2.13322         0.022263     -0.012754      0.012158
Li	     10.39271      8.24653     -6.39152         0.009293      0.001009      0.016196
Li	      2.04581      3.97284      1.93500        -0.002324      0.001970      0.009918
Li	      2.11802      8.16781     -2.33873         0.008456      0.008245      0.002660
Li	     10.26990      6.04496     -0.11253         0.014854     -0.013146     -0.004551
Li	     10.33009     10.27498     -4.33156         0.010969     -0.007240     -0.003562
Li	      2.04301      5.95784      3.97592         0.008745     -0.010702      0.000679
Li	      2.14673     10.22346     -0.27048         0.010323      0.001233     -0.002923
Li	     10.40146      8.00647      1.91154        -0.008100      0.000576      0.005533
Li	     10.40138     12.28323     -2.39123         0.005431     -0.002193      0.000194
Li	      4.16307      8.01662      3.80017        -0.001126      0.000273     -0.004845
Li	     12.58877      4.20880     -4.20635         0.004946     -0.022177      0.000335
Li	      4.21448      4.09268     -0.17896        -0.008322      0.006938     -0.008154
Li	     12.63632      6.20099     -2.27452        -0.006860      0.009868      0.001736
Li	     12.48981     10.20664     -6.41093        -0.022016     -0.004659     -0.010517
Li	      4.21860      6.08286      1.85700        -0.006004      0.003121     -0.006370
Li	      4.20429     10.19807     -2.25947        -0.015882      0.007818      0.002403
Li	     12.59848      8.16007     -0.30452        -0.037722     -0.010729      0.006978
Li	     12.51164     12.35433     -4.27108        -0.018934     -0.002942     -0.009107
Li	      6.35702      3.82916     -2.30031        -0.020079     -0.021404      0.008040
Li	     14.43294     10.01877     -8.44780         0.007524     -0.001300      0.015581
Li	      6.27169      6.11787     -0.04818        -0.002798     -0.003981      0.022029
Li	      6.13057      9.95687     -4.43840         0.006911     -0.005215      0.023313
Li	     14.50381     12.30768     -6.22113        -0.000156     -0.010697      0.010924
Li	      6.12088     12.29385     -2.07283         0.007584     -0.017819      0.017142
Ni	     16.60345     12.10104     -0.29794        -0.034440     -0.035155     -0.014148
Ni	     -0.00187     12.10840     -0.29949        -0.104629     -0.025111      0.101906
Ni	      8.36472     10.05260      1.79035        -0.068429     -0.049834      0.046969
Ni	      8.28091      8.32986     -8.33900        -0.124207     -0.096370      0.015293
Ni	     16.53603      8.14122     -4.22399        -0.004430     -0.055849      0.042715
Ni	     16.57346     12.34249     -8.41920        -0.065291     -0.070330      0.036842
Ni	      8.32888      6.12834     -2.19299        -0.009334      0.022977      0.039078
Ni	      8.28449     10.23458     -6.32886        -0.083458     -0.011007      0.076404
Ni	     16.60319     10.15756     -2.28059        -0.037443      0.014009      0.009163
Ni	     -0.01500     10.14157     -2.24362         0.005694     -0.086394      0.031639
Ni	      8.35774      8.09138     -0.21950        -0.075744     -0.041826     -0.023157
Ni	      8.29442     12.21598     -4.35529        -0.104191     -0.033177      0.040336
Ni	      2.07858      4.11903     -2.16059        -0.103042      0.005755      0.015331
Ni	      2.05868      8.28382     -6.34357        -0.055438     -0.009493      0.035250
Ni	     10.42661      6.15153     -4.20325        -0.019905      0.072544      0.015837
Ni	     10.35645     10.31681     -8.39320         0.009651     -0.011634      0.026079
Ni	      2.07771      6.08784     -0.17756        -0.079560     -0.015769     -0.021234
Ni	      2.10911     10.27074     -4.36505        -0.093952     -0.045804      0.004992
Ni	     10.40628      8.15699     -2.26937        -0.026929     -0.014238     -0.004502
Ni	     10.35293     12.31451     -6.46473        -0.015267     -0.030378     -0.004507
Ni	      2.04572      8.05867      1.80905        -0.027280      0.016731     -0.007430
Ni	      2.06560     12.21990     -2.36706        -0.022039     -0.036405      0.005182
Ni	     10.38184     10.12333     -0.25972        -0.046085     -0.032961     -0.001647
Ni	     10.32211     14.28030     -4.46003        -0.059112     -0.003672      0.018198
Ni	      4.14025     10.05075      1.78621         0.023218     -0.047885     -0.024394
Ni	      4.07802      8.34216     -8.36416         0.107682     -0.035909     -0.084569
Ni	     12.45932     12.10713     -0.28678         0.039355     -0.009183     -0.000791
Ni	     12.44134     16.21601     -4.42918         0.083042      0.005708      0.033335
Ni	      4.16207      6.11776     -2.18025         0.001644      0.028655      0.035551
Ni	      4.11324     10.32338     -6.39072         0.044523      0.049832      0.027059
Ni	     12.49224      8.17863     -4.25171        -0.009041      0.006997      0.020665
Ni	     12.46858     12.31978     -8.44672         0.044098      0.050121     -0.032703
Ni	      4.14275      8.07487     -0.18195         0.058574     -0.020727      0.046986
Ni	      4.13530     12.29998     -4.41740         0.034268      0.020478     -0.015564
Ni	     12.43594     10.16307     -2.27503         0.035261     -0.052423     -0.012554
Ni	     12.40569     14.28820     -6.45498         0.034126     -0.005631     -0.043718
Ni	      6.13619      6.25300     -4.30084         0.075910      0.063428     -0.056324
Ni	      6.16964     10.36116     -8.43025         0.032840      0.037223      0.002502
Ni	     14.52036      8.22191     -6.29463        -0.008712      0.091020     -0.000434
Ni	     14.56181     12.33554    -10.42323         0.052566     -0.002642     -0.031680
Ni	      6.17698      8.19439     -2.29124         0.080088      0.074277      0.017662
Ni	      6.16188     12.35303     -6.46872         0.062835      0.036466     -0.038741
Ni	     14.49745     10.22630     -4.31198         0.059585      0.009336     -0.095303
Ni	     14.51880     14.30710     -8.44921         0.074163      0.033938     -0.015800
Ni	      6.19988     10.14562     -0.27686         0.076544     -0.025275     -0.059869
Ni	      6.18847     14.34369     -4.48741         0.084128      0.038574     -0.062401
Ni	     14.47670     12.24533     -2.37247         0.073996      0.036852     -0.069699
Ni	     14.50631     16.27478     -6.45851         0.011624      0.040164     -0.014347
O	      4.14267      4.20463     -2.26723         0.098972     -0.118476      0.138661
O	      4.07193      8.47864     -6.51684         0.037757     -0.154471      0.202875
O	     12.28747      6.17981     -4.33518         0.086698     -0.106996      0.129946
O	     12.46440     10.45342     -8.50333         0.071435     -0.175939      0.157873
O	      4.15529      6.18219     -0.27362         0.080364     -0.149229      0.127943
O	      4.17377     10.43716     -4.51196         0.090216     -0.106717      0.129242
O	     12.27392      8.27449     -2.28783         0.149773     -0.138484      0.112339
O	     12.44973     12.40776     -6.55999         0.065093     -0.154084      0.170255
O	      3.93077      8.13451      1.73384         0.179783     -0.106315      0.094413
O	      4.13328     12.34753     -2.55175         0.083070     -0.138739      0.104927
O	     12.25338     10.20966     -0.34590         0.160475     -0.112392      0.114047
O	     12.21102     14.32563     -4.56148         0.129324     -0.131121      0.132696
O	      6.25251      4.35510     -4.34048         0.008876     -0.133128      0.166350
O	      6.32430     14.35399     -2.58870        -0.132695     -0.097014      0.111253
O	     14.53176     12.28692     -0.49369         0.014792     -0.141127      0.136202
O	     14.66169     10.43596    -10.48789        -0.099014     -0.142701      0.121848
O	      6.25499      6.31080     -2.38659        -0.003600     -0.152361      0.107827
O	      6.03220     10.46189     -6.51704         0.099981     -0.120605      0.107519
O	     14.48247      8.34636     -4.40629         0.073203     -0.081704      0.083849
O	     14.64504     12.40058     -8.51125        -0.170933     -0.106458      0.134825
O	      6.26919      8.23708     -0.39224        -0.061937     -0.121374      0.096932
O	      6.05169     12.42948     -4.53702         0.120875     -0.105731      0.087537
O	     14.50875     10.35998     -2.45921         0.017690     -0.137892      0.130887
O	     14.50965     14.38833     -6.56914        -0.004124     -0.161211      0.121195
O	      4.12542      6.00093     -4.04248        -0.082202      0.148471     -0.152442
O	      4.05749     10.23884     -8.26593        -0.064905      0.153466     -0.134014
O	     12.63124      8.10052     -6.22595        -0.125942      0.118689     -0.127855
O	     12.67294     12.21970    -10.33805        -0.238539      0.077247     -0.106026
O	      4.13214      8.03505     -2.05644        -0.107174      0.107639     -0.151437
O	      4.08963     12.23571     -6.30770        -0.082498      0.102991     -0.103625
O	     12.61853     10.22644     -4.22896        -0.132401      0.095660     -0.106941
O	     12.63942     14.22260     -8.40335        -0.183293      0.113264     -0.088463
O	      4.13606      9.93914     -0.11860        -0.108312      0.153968     -0.121292
O	      4.10609     14.18001     -4.32298        -0.096645      0.098500     -0.122711
O	     12.42349     12.01676     -2.18491        -0.082664      0.158949     -0.123120
O	     12.42495     16.16325     -6.30968        -0.065750      0.137449     -0.140065
O	      6.11406      1.95186     -1.89735        -0.011538      0.185788     -0.186267
O	      6.35197     11.97616     -0.18849         0.020718      0.196896     -0.159632
O	     14.52770      3.89424     -3.88851         0.005059      0.152126     -0.243483
O	     14.65819      8.16260     -8.12821         0.021086      0.183880     -0.163962
O	      6.21239      3.94122      0.00098        -0.002603      0.136185     -0.131113
O	      6.34420      8.09415     -4.12296         0.020749      0.159093     -0.195438
O	     14.52340      5.84012     -1.91279        -0.028510      0.244247     -0.164408
O	     14.51755     10.11262     -6.20178         0.010373      0.111828     -0.105676
O	      6.22781      5.89055      1.99569        -0.002855      0.163484     -0.149992
O	      6.23215     10.08651     -2.17616        -0.000309      0.137044     -0.130837
O	     14.46522      7.81655      0.04645        -0.022304      0.203487     -0.165836
O	     14.55311     12.08457     -4.25406        -0.000403      0.137682     -0.151571
O	      0.09305      2.14294     -0.25145         0.023894     -0.160823      0.178342
O	      0.00516      6.33226     -4.37082         0.003051     -0.199553      0.138210
O	      8.28708      4.27626     -2.26312        -0.006123     -0.175493      0.120298
O	      8.35207      8.37931     -6.47365         0.016321     -0.168529      0.192363
O	      0.10477      4.18102      1.78456         0.023798     -0.188811      0.139239
O	     16.59584     12.38963     -6.54265        -0.001771     -0.137292      0.246891
O	      8.28953      6.19302     -0.29841        -0.004907     -0.165384      0.130955
O	      8.25103     10.32837     -4.44710        -0.013769     -0.152874      0.145011
O	      0.11125      6.06572      3.76210         0.005660     -0.130580      0.149529
O	      0.12404     10.25200     -0.37754         0.021767     -0.190050      0.175854
O	      8.45845      8.19721      1.62082         0.012588     -0.151888      0.199127
O	      8.29224     12.36083     -2.47062        -0.001034     -0.141232      0.152107
O	      2.03578      4.19775     -0.27035         0.077837     -0.135096      0.144748
O	      1.81096      8.36621     -4.33789         0.267082     -0.078721      0.049091
O	     10.48830      6.27019     -2.32001         0.047509     -0.123785      0.089215
O	     10.39001     10.41281     -6.48571         0.053130     -0.119549      0.137760
O	      2.08742      6.18410      1.70825         0.054124     -0.153478      0.147585
O	      2.08452     10.32910     -2.47647         0.068282     -0.136626      0.159294
O	     10.42306      8.16898     -0.40724         0.139563     -0.092171      0.157868
O	     10.35946     12.37006     -4.54115         0.075569     -0.130839      0.135577
O	      2.08085      8.14429      3.69038         0.055061     -0.144930      0.151177
O	      1.84664     12.20266     -0.39268         0.201566     -0.072275      0.090891
O	     10.44825      4.29093     -4.16320         0.066498     -0.127524      0.098534
O	     10.14358      8.40456     -8.35746         0.203052     -0.115254      0.090137
O	     16.43089      8.12743     -6.14747         0.119789      0.101033     -0.116575
O	     16.49489     12.22614    -10.32416         0.175097      0.105828     -0.163627
O	      8.52171      6.05853     -4.10224        -0.096492      0.120140     -0.103726
O	      8.25704     10.19698     -8.20079        -0.012075      0.162225     -0.137711
O	     16.42461     10.08456     -4.21216         0.097696      0.138607     -0.110504
O	     16.45120     14.22999     -8.31007         0.099254      0.156102     -0.103389
O	      8.49324      8.04234     -2.15295        -0.126874      0.109247     -0.121185
O	      8.23312     12.12804     -6.25126        -0.001447      0.107832     -0.123783
O	      0.12353      7.94797      1.92545        -0.170067      0.114809     -0.119605
O	     -0.00716     12.02888     -2.16655        -0.015874      0.133849     -0.132726
O	      8.47609     10.00579     -0.14256        -0.087178      0.151626     -0.100020
O	      8.35240     14.11917     -4.29768        -0.045873      0.113923     -0.144768
O	      2.00600      9.93780      1.90304        -0.050790      0.147123     -0.149035
O	      2.01691     14.08205     -2.37378        -0.089406      0.194068     -0.087575
O	     10.34967      6.15572     -6.07447        -0.076421      0.102287     -0.091006
O	     10.41194     10.26695    -10.27498        -0.083074      0.127233     -0.159589
O	      2.01585      6.00871     -2.06711        -0.059867      0.145533     -0.144385
O	      2.25074     10.28423     -6.25752        -0.138778      0.097680     -0.167237
O	     10.40146      8.06128     -4.16377        -0.101231      0.065392     -0.132968
O	     10.39647     12.24041     -8.39854        -0.084667      0.103477     -0.116263
O	      2.00887      7.97838     -0.07410        -0.059843      0.140928     -0.148089
O	      2.26060     12.18029     -4.33519        -0.133184      0.137164     -0.091667
O	     10.35309     10.02741     -2.30955        -0.078898      0.129730     -0.096354
O	     10.33470     14.19185     -6.50966        -0.094576      0.156334     -0.094755
