# total energy = -866.01164222 eV
 
CRYSTAL
PRIMVEC
0.003314 5.922446 5.932587 
16.618733 4.148110 -4.146310 
-0.038237 8.357710 -8.371829 
PRIMCOORD
181 1
Li	      8.20579     12.26995     -0.46906         0.009617      0.018459     -0.015085
Li	     16.34729      4.44923     -4.31955         0.012975      0.018382     -0.026267
Li	      0.02864     10.13852      1.69485         0.009461      0.018077     -0.026012
Li	      8.12348      3.89724     -0.43434         0.007009     -0.003646     -0.026289
Li	      8.21001      8.38735     -4.33782         0.012875      0.020120     -0.009156
Li	     16.60024     10.34401     -6.38534         0.007368      0.017775     -0.017445
Li	      8.27783      6.12827      1.84141        -0.002492      0.013747     -0.016934
Li	      8.05287     10.40660     -2.49555         0.024355      0.006087     -0.005462
Li	     16.30596      8.26226     -0.54008        -0.003759      0.006263     -0.012033
Li	     16.59001     12.30604     -4.41369         0.018370      0.013799     -0.008778
Li	      2.00872      2.02462      0.03047        -0.006173      0.004995     -0.006893
Li	      2.26555      6.33594     -4.34692         0.005040      0.005173     -0.003307
Li	     10.40100      4.02044     -2.10220        -0.006305     -0.008876      0.003137
Li	     10.36483      8.32445     -6.37599         0.006783     -0.001153      0.014950
Li	      2.03579      3.96940      1.91062         0.006377      0.026112      0.002469
Li	      2.15940      8.21236     -2.33828         0.002204      0.001342      0.004354
Li	     10.27928      6.00132     -0.10980         0.012738     -0.020437     -0.007668
Li	     10.38186     10.30820     -4.38321         0.010773      0.008116      0.000342
Li	      2.01737      5.94477      3.94877         0.000354      0.004132     -0.015365
Li	      2.17207     10.21012     -0.33450         0.008446     -0.008173      0.000359
Li	     10.34514      7.99248      1.92836         0.001591     -0.008157      0.010442
Li	     10.39537     12.34503     -2.37564        -0.000958      0.005662      0.008120
Li	      4.16132      2.09831     -2.07348        -0.002113     -0.005580     -0.010677
Li	     12.66878      4.28349     -4.25264        -0.001971      0.005499     -0.006660
Li	      4.22550      4.06861     -0.14552        -0.006397      0.019253     -0.003281
Li	     12.65529      6.24478     -2.29549        -0.000653      0.010444     -0.007707
Li	     12.44637     10.23654     -6.45627        -0.011896     -0.000292     -0.003965
Li	      4.21153      6.05570      1.88253        -0.013899      0.015289     -0.006438
Li	      4.36073     10.31791     -2.46336        -0.012810      0.010146     -0.016699
Li	     12.62638      8.18434     -0.29856        -0.015654     -0.008378      0.002554
Li	     12.44918     12.36686     -4.32416        -0.009030     -0.002639     -0.000548
Li	      5.97358      8.07447     -6.09987         0.002330     -0.019668      0.021057
Li	     14.47195     10.22508     -8.33286        -0.003315     -0.004933      0.009221
Li	      6.28540      5.95130     -0.12215        -0.010996     -0.002777      0.009980
Li	     14.51367     12.26125     -6.34393        -0.002396     -0.016258      0.014001
Li	      6.44160      8.13806      2.17010        -0.007442     -0.014570      0.013053
Li	     14.49341     14.24275     -4.31656         0.003165     -0.015657      0.005911
Ni	     16.60003     12.16696     -0.33198        -0.034231     -0.021921     -0.032555
Ni	      0.03000     12.15126     -0.32843        -0.065981     -0.091314      0.067699
Ni	      8.33352      4.12830     -4.12878        -0.003772     -0.054495      0.016020
Ni	      8.23927      8.35494     -8.32667        -0.111086     -0.072047      0.052647
Ni	     16.57394      8.20292     -4.25721        -0.026788     -0.031135      0.024794
Ni	     -0.00547      8.20909     -4.27349        -0.103955     -0.056717      0.097450
Ni	      8.32354      6.11711     -2.16453        -0.006642      0.031482      0.040750
Ni	      8.24650     10.28380     -6.30482        -0.079341     -0.038290      0.052376
Ni	     16.58592     10.19650     -2.29861        -0.010470      0.041829      0.007371
Ni	     -0.00314     10.15428     -2.27567        -0.017715     -0.042908      0.020497
Ni	      8.33980      8.09121     -0.19980        -0.012302     -0.038156     -0.004903
Ni	      8.25211     12.26036     -4.34647        -0.025328     -0.033301      0.038717
Ni	      2.07189      4.12791     -2.15560        -0.056256     -0.009296     -0.014526
Ni	      2.06006      8.30664     -6.33856         0.005378     -0.001729      0.034623
Ni	     10.38208      6.21319     -4.23504        -0.109902     -0.007680      0.014890
Ni	     10.32645     10.36322     -8.39033        -0.010699     -0.002082     -0.005222
Ni	      2.08472      6.09195     -0.18158        -0.029606      0.025372      0.006853
Ni	      2.05984     10.29627     -4.36742        -0.122257     -0.086733     -0.017891
Ni	     10.36096      8.18824     -2.25491        -0.003801      0.007140     -0.003810
Ni	     10.33834     12.35967     -6.45822        -0.039227     -0.030520     -0.004329
Ni	      2.08032      8.07500      1.79901        -0.056380     -0.001294     -0.020949
Ni	      2.00148     12.24740     -2.40263        -0.079553     -0.034655      0.087885
Ni	     10.37028     10.15093     -0.26902        -0.025660     -0.006877     -0.001480
Ni	     10.33821     14.32413     -4.44790        -0.032250      0.007161      0.023932
Ni	      4.17346     10.04131      1.80126         0.000838     -0.017153      0.019533
Ni	      4.04864      8.34309     -8.35390         0.097969     -0.038749     -0.058268
Ni	     12.46031      6.25371     -6.25008         0.024752     -0.032259     -0.003841
Ni	     12.40705     16.29979     -4.45637         0.120411     -0.033055      0.003471
Ni	      4.18318      6.11064     -2.15303        -0.011552     -0.020780     -0.002873
Ni	      4.10870     10.35419     -6.37681         0.042075      0.030762      0.011253
Ni	     12.45911      8.22492     -4.27502         0.020996      0.008254      0.074950
Ni	     12.42388     12.37716     -8.45194         0.088672      0.085921      0.000765
Ni	      4.17063      8.07834     -0.17782        -0.010596     -0.044555      0.074968
Ni	      4.09440     12.31689     -4.41386         0.038440      0.056022      0.021816
Ni	     12.44117     10.18953     -2.29331         0.022776     -0.068300      0.026997
Ni	     12.40961     14.35422     -6.47597         0.043134      0.000082     -0.058567
Ni	      6.24029      6.13151     -4.16314        -0.070014     -0.002916     -0.019787
Ni	      6.15073     10.39994     -8.43450         0.019795      0.056457     -0.056795
Ni	     14.46525      8.34579     -6.39488         0.077971      0.050444     -0.044233
Ni	     14.54921     12.40760    -10.44417         0.025791     -0.038839     -0.020097
Ni	      6.17323      8.17605     -2.26313         0.085721      0.051242     -0.025244
Ni	      6.16709     12.38741     -6.44081         0.043361      0.056807     -0.067974
Ni	     14.48704     10.31640     -4.39831         0.036282      0.096617     -0.081353
Ni	     14.52683     14.36167     -8.45682         0.105386      0.026943      0.026738
Ni	      6.17054     10.15646     -0.26497         0.098991      0.016730     -0.031387
Ni	      6.17874     14.35647     -4.46936         0.046191      0.043878     -0.037951
Ni	     14.50450     12.30010     -2.41597         0.023997      0.056944     -0.071611
Ni	     14.50777     16.35004     -6.48947         0.073620      0.000656     -0.002190
O	      3.95100      4.17919     -2.21795         0.158248     -0.102909      0.133399
O	      4.08418      8.49777     -6.49882         0.069874     -0.152263      0.188746
O	     12.38469      6.33703     -4.36493         0.121010     -0.134478      0.140118
O	     12.43764     10.51016     -8.50611         0.061043     -0.180171      0.150861
O	      4.16107      6.18243     -0.27280         0.114791     -0.144611      0.159872
O	      4.06241     10.46794     -4.50970         0.098643     -0.180313      0.148933
O	     12.26508      8.29176     -2.36299         0.232922     -0.111426      0.087472
O	     12.43868     12.46404     -6.56482         0.058694     -0.137286      0.164678
O	      4.08960      8.15083      1.73378         0.172812     -0.134762      0.118983
O	      3.86641     12.35540     -2.50976         0.221620     -0.116181      0.079386
O	     12.25673     10.25100     -0.36460         0.234485     -0.085714      0.084528
O	     12.34816     14.40533     -4.58601         0.092767     -0.138298      0.149031
O	      6.24380     10.15462      1.62813         0.044494     -0.145762      0.143513
O	      6.28875      8.48965     -8.48103        -0.142524     -0.116293      0.121814
O	     14.52789      6.47708     -6.47853         0.015615     -0.140067      0.153893
O	     14.70305     16.38560     -4.56250        -0.154801     -0.112090      0.115841
O	      6.23823      6.28427     -2.27313         0.041500     -0.130528      0.157521
O	      6.02012     10.45068     -6.53536         0.105199     -0.119538      0.131021
O	     14.51641      8.44229     -4.51081         0.014300     -0.159343      0.133487
O	     14.66240     12.44399     -8.50898        -0.170219     -0.168898      0.102621
O	      6.26437      8.25253     -0.35688         0.018456     -0.109219      0.096173
O	      6.17333     12.48913     -4.57612         0.004399     -0.143817      0.141310
O	     14.49342     10.41069     -2.51168         0.020086     -0.126414      0.137067
O	     14.53781     14.45236     -6.54293        -0.024296     -0.132223      0.172234
O	      4.30759      6.00295     -4.03057        -0.149445      0.124979     -0.118507
O	      4.05103     10.24230     -8.26412        -0.070520      0.150364     -0.124044
O	     12.41110      8.16209     -6.14582        -0.092481      0.141935     -0.172140
O	     12.47024     12.26338    -10.33029        -0.034286      0.142575     -0.167517
O	      4.15445      8.02990     -2.04993        -0.093582      0.087538     -0.179711
O	      4.10644     12.25581     -6.33337        -0.085262      0.114659     -0.109943
O	     12.39988     10.13424     -4.22309        -0.098477      0.120329     -0.119769
O	     12.61119     14.28969     -8.40725        -0.281103      0.075376     -0.080807
O	      4.14638      9.94197     -0.09810        -0.076113      0.161161     -0.117959
O	      4.09649     14.20273     -4.31962        -0.092392      0.139331     -0.118836
O	     12.42013     12.05405     -2.21673        -0.059917      0.166596     -0.142548
O	     12.43579     16.23775     -6.34470        -0.076275      0.137180     -0.138036
O	      6.10957      7.83517      4.01985        -0.002896      0.188637     -0.170805
O	      6.30245      6.08085     -5.99622         0.030194      0.194545     -0.213834
O	     14.54260      9.83942      1.99396         0.000147      0.187951     -0.177060
O	     14.66482     14.17541     -2.32661         0.012081      0.145605     -0.152877
O	      6.20222      3.93251      0.07088        -0.008471      0.154809     -0.164124
O	      6.31310      7.96529     -4.11440         0.027470      0.213820     -0.191714
O	     14.51772      5.88904     -1.91297        -0.022597      0.184504     -0.258313
O	     14.51802     10.23083     -6.30354        -0.004430      0.145330     -0.133223
O	      6.23819      5.95171      1.99512         0.020160      0.120568     -0.137615
O	      6.22327     10.03091     -2.11697         0.004517      0.174770     -0.172893
O	     14.52046      7.84543      0.02421        -0.000479      0.263972     -0.167191
O	     14.50693     12.21712     -4.31064        -0.011487      0.143559     -0.149767
O	      0.09076      2.19625     -0.27949        -0.001137     -0.161796      0.188591
O	      0.05839      6.34551     -4.39473        -0.002576     -0.231071      0.170259
O	      8.45970      4.28400     -2.27842         0.017679     -0.188009      0.175789
O	      8.21489      8.40449     -6.44475         0.009159     -0.148627      0.186789
O	      0.09494      4.21153      1.74942        -0.008636     -0.191040      0.157153
O	     -0.00306      8.25801     -2.38939        -0.025510     -0.155083      0.158478
O	      8.32567      6.19286     -0.27034         0.001291     -0.145291      0.146509
O	      8.39822     10.38226     -4.44016        -0.005417     -0.159338      0.163691
O	      0.06948      6.12722      3.73081        -0.002096     -0.162352      0.154086
O	      0.02680     10.26532     -0.40347         0.025792     -0.136317      0.176888
O	      8.37629      8.16393      1.65352         0.002808     -0.153174      0.177813
O	      8.37925     12.40998     -2.47805         0.014630     -0.168193      0.171055
O	      2.11280      4.20118     -0.28087         0.038095     -0.173351      0.152893
O	      1.85632      8.36781     -4.31645         0.265097     -0.068105      0.055830
O	     10.41762      6.30819     -2.33599         0.054865     -0.188944      0.136252
O	     10.35536     10.45330     -6.50136         0.075590     -0.099816      0.153590
O	      2.09864      6.18056      1.72234         0.045438     -0.191591      0.154191
O	      2.05932     10.35596     -2.48560         0.069953     -0.130485      0.188002
O	     10.44531      8.26471     -0.37328         0.085470     -0.154610      0.171052
O	     10.36913     12.43065     -4.54783         0.066729     -0.148539      0.133292
O	      2.09223      2.25009     -2.24531         0.055864     -0.131174      0.176233
O	      1.89524     12.19401     -0.48600         0.196904     -0.069592      0.116403
O	     10.42153      4.31743     -4.31852         0.060769     -0.149509      0.188240
O	     10.11611      8.45252     -8.34478         0.199794     -0.116070      0.080485
O	      0.15258      4.04152     -2.05586        -0.134114      0.127194     -0.117541
O	      0.00447      8.09075     -6.14677        -0.010550      0.159036     -0.194569
O	      8.16930      6.04575     -4.08276         0.178058      0.107270     -0.111154
O	      8.22174     10.23219     -8.18403        -0.019441      0.155613     -0.130626
O	     -0.00855      5.97393     -0.07290        -0.029053      0.120569     -0.122270
O	     16.49020     14.23906     -8.31182         0.177271      0.152452     -0.097282
O	      8.43734      8.04341     -2.11265        -0.202673      0.086846     -0.103477
O	      8.22501     12.18403     -6.25378         0.028389      0.126252     -0.112881
O	      0.02244      7.96869      1.89050        -0.095174      0.106570     -0.122173
O	      0.08451     12.08535     -2.20934        -0.158702      0.121380     -0.150707
O	      8.46224     10.01391     -0.12111        -0.219777      0.105860     -0.103483
O	      8.30977     14.15984     -4.28233        -0.044205      0.109564     -0.146761
O	      2.05796      4.06275     -4.03726        -0.076237      0.182493     -0.131133
O	      1.97643     14.10858     -2.40193        -0.102876      0.183149     -0.079806
O	     10.30639     12.02933     -0.19457        -0.068910      0.168752     -0.144633
O	     10.38767     10.29022    -10.27194        -0.094377      0.134382     -0.142880
O	      2.07344      6.00492     -2.09766        -0.071998      0.157579     -0.148802
O	      2.23382     10.32864     -6.25720        -0.139924      0.081455     -0.181000
O	     10.29158      8.10423     -4.13784        -0.052286      0.146985     -0.158139
O	     10.36038     12.28832     -8.36602        -0.084914      0.111415     -0.148341
O	      2.06022      7.98837     -0.09546        -0.093862      0.142500     -0.163802
O	      1.97039     12.19525     -4.26688        -0.068283      0.158610     -0.215862
O	     10.30995     10.06795     -2.14604        -0.037034      0.168736     -0.175641
O	     10.34475     14.25127     -6.48150        -0.094114      0.149257     -0.090311
