# total energy = -871.54734284 eV
 
CRYSTAL
PRIMVEC
0.001083 5.955664 5.947621 
16.557999 4.193011 -4.184410 
-0.015583 8.412462 -8.400557 
PRIMCOORD
182 1
Li	      8.27591      2.14488     -2.13884        -0.004211      0.020081     -0.016823
Li	      7.82495      6.62660     -6.60483         0.028293     -0.002900      0.004914
Li	      0.00090      0.08649     -0.08566         0.008392      0.015120     -0.021440
Li	      8.27334      4.11630     -0.16478         0.005570      0.017757     -0.015947
Li	      0.04260      2.12399      1.94403         0.001847      0.016519     -0.028154
Li	      8.27735      6.11405      1.83224         0.005826      0.022634     -0.017471
Li	      0.04967      4.03006      3.82804        -0.002686      0.023577     -0.020948
Li	      2.01734      2.15037     -0.02687         0.022060     -0.016129     -0.001832
Li	      1.92098      6.11178     -4.13493         0.020940     -0.003522      0.014142
Li	     10.33357      4.19302     -2.15729         0.003824     -0.011538      0.002902
Li	     10.25388      8.28305     -6.23427         0.010453     -0.000007     -0.000917
Li	      1.85891      8.07225     -2.16057         0.011014      0.013523      0.007364
Li	     10.34014      6.14806     -0.22032         0.010917     -0.004015     -0.001230
Li	     10.18911     10.17293     -4.21191         0.020814     -0.007474      0.002834
Li	      2.08711      6.00615      3.79782         0.007673     -0.011213      0.004193
Li	      1.95895     10.08565     -0.20567         0.009687     -0.002100      0.009326
Li	     10.33245      8.11686      1.78273         0.008908     -0.000422      0.013816
Li	     10.27129     12.20888     -2.31624         0.006291      0.000603      0.003199
Li	      4.18931      2.05834     -2.04000        -0.032613      0.020922     -0.017494
Li	      4.25353      6.42422     -6.40734        -0.014044     -0.009643      0.014533
Li	     12.40976      4.17826     -4.15581        -0.010386      0.010770     -0.007556
Li	     12.46579     14.41646     -2.53988        -0.011929     -0.002322      0.000907
Li	      4.12508      4.05138     -0.03725        -0.023987     -0.005109     -0.019776
Li	      4.28090      8.48172     -4.47120        -0.005258     -0.017549      0.006764
Li	     12.37686      6.15563     -2.19148        -0.008187      0.016519     -0.013300
Li	     12.41347     10.44186     -6.46415         0.004990     -0.003984     -0.002435
Li	      4.10708      5.97750      1.87221        -0.011087      0.023974     -0.003325
Li	      4.28607     10.34554     -2.48280        -0.015614      0.000992      0.009162
Li	     12.37749      8.15459     -0.21292        -0.006806      0.003674     -0.011110
Li	     12.42881     12.47226     -4.46216        -0.000226     -0.000183      0.003944
Li	      6.19030      4.03644     -2.08355         0.001981     -0.002703      0.020568
Li	     14.50342      6.19780     -4.17855         0.002553     -0.008480      0.006365
Li	     14.85351     10.11131     -8.29512        -0.023891     -0.004386      0.009594
Li	      6.21279      6.05003     -0.08165        -0.001579     -0.020776      0.014551
Li	     14.44999      8.17364     -2.21975         0.003641     -0.017990      0.005426
Li	     14.82900     12.30709     -6.11957        -0.036736     -0.013250      0.000682
Li	      6.22252      8.03614      1.89067        -0.013943     -0.018858      0.022218
Li	     14.50827     10.16099     -0.23174        -0.010061     -0.019091      0.008379
Ni	      0.02089      8.02608      3.88005        -0.098905     -0.116769      0.104474
Ni	      0.05085     12.31253     -0.40442        -0.077451      0.017060      0.027439
Ni	      8.29051      4.10105     -4.09010        -0.086300     -0.058518      0.087865
Ni	      8.29848     14.40119     -2.48807        -0.048818      0.023202     -0.020343
Ni	      0.02747      4.03884     -0.04896        -0.082900     -0.106089      0.048949
Ni	      0.04923      8.35712     -4.37231        -0.039778     -0.014460      0.000443
Ni	      8.25864      6.09350     -2.13154        -0.048420     -0.013156      0.074938
Ni	      8.23644     10.38575     -6.41968        -0.005589     -0.042773      0.006473
Ni	      0.02175      6.00243      1.91087        -0.074488     -0.046420      0.093695
Ni	      0.04283     10.34288     -2.38718        -0.053405     -0.016464     -0.006703
Ni	      8.27894      8.09265     -0.12995        -0.060675     -0.081181      0.004201
Ni	      8.26389     12.38702     -4.42421        -0.013743      0.015119      0.043564
Ni	      2.05675      4.12218     -2.14107        -0.051089      0.001961     -0.077935
Ni	      2.09263      8.38052     -6.38943        -0.055521     -0.034455     -0.031163
Ni	     10.29602      6.21697     -4.23373        -0.019133      0.031280     -0.016528
Ni	     10.37883     10.50041     -8.49750        -0.102972     -0.002944      0.014690
Ni	      2.06622      6.13736     -0.19404        -0.052995      0.017036      0.004761
Ni	      2.10495     10.38259     -4.41238        -0.126239      0.025435     -0.042356
Ni	     10.26514      8.22812     -2.26264        -0.082364      0.012990     -0.016951
Ni	     10.36446     12.47776     -6.51062        -0.063938     -0.011884      0.004992
Ni	      2.03126      8.09573      1.80375         0.005768      0.066848     -0.034611
Ni	      2.08635     12.36537     -2.41931        -0.080720      0.035755      0.043644
Ni	     10.30356     10.20057     -0.25475        -0.011258      0.022715     -0.025949
Ni	     10.34452     14.45972     -4.52678        -0.062473      0.008458     -0.001592
Ni	      4.08754     10.08301      1.81151         0.003263     -0.042910     -0.021342
Ni	      4.13944     14.37980     -2.47015         0.020211     -0.001456      0.047204
Ni	     12.36543      6.27249     -6.25867         0.115180      0.006024     -0.002969
Ni	     12.44008     10.51458    -10.49661         0.039156     -0.018534     -0.003501
Ni	      4.12763      6.13622     -2.16785         0.036735      0.041379     -0.011798
Ni	      4.15943     10.43496     -6.42213        -0.008496     -0.027549     -0.031980
Ni	     12.37464      8.25848     -4.29190         0.076431     -0.005946      0.029299
Ni	     12.45241     12.52173     -8.53879         0.013444     -0.010694      0.012143
Ni	      4.13390      8.15065     -0.20138         0.054319      0.012422      0.028577
Ni	      4.15462     12.40118     -4.46246         0.004702      0.003912      0.012739
Ni	     12.38173     10.26765     -2.29722         0.081560     -0.017288     -0.005826
Ni	     12.44085     14.49346     -6.54291         0.027226     -0.007879      0.024699
Ni	      6.14207      6.19243     -4.18080         0.028259     -0.014540     -0.039679
Ni	      6.19394     10.48025     -8.49818         0.039070      0.130420     -0.111806
Ni	     14.47147      8.34562     -6.33127         0.045368      0.007021      0.009848
Ni	     14.46550     12.63592    -10.62932         0.094837      0.071420     -0.078104
Ni	      6.16287      8.18856     -2.18654         0.157782     -0.059136     -0.010199
Ni	      6.20322     12.47979     -6.51612         0.108633      0.089595     -0.101165
Ni	     14.43248     10.31627     -4.36420         0.036501     -0.014837     -0.033094
Ni	     14.45278     14.62126     -8.65369         0.090279      0.074445     -0.080498
Ni	      6.15878     10.17045     -0.22155         0.025605      0.058641      0.036033
Ni	      6.16348     14.48396     -4.55530         0.108449      0.076914     -0.070754
Ni	     14.50201     12.33525     -2.40136         0.031085      0.024538     -0.024121
Ni	     14.47096     16.59329     -6.65495         0.068266      0.070019     -0.056127
O	      4.08147      4.07886     -2.26502         0.097560     -0.115662      0.167125
O	      3.94960      8.42205     -6.50318         0.155818     -0.095233      0.126841
O	     12.44696      6.37197     -4.36350         0.076105     -0.147768      0.151666
O	     12.43976     10.60926     -8.60865         0.067652     -0.098148      0.134386
O	      4.18362      6.27939     -0.26445         0.072840     -0.199652      0.144870
O	      3.94709     10.42525     -4.44348         0.181690     -0.062066      0.123273
O	     12.41288      8.37366     -2.40042         0.059389     -0.153167      0.168010
O	     12.44300     12.60582     -6.63759         0.069500     -0.134121      0.119876
O	      4.08719      8.19065      1.69503         0.066832     -0.166131      0.203036
O	      3.93277     12.46157     -2.45403         0.172336     -0.147656      0.065138
O	     12.45277     10.33437     -0.41338         0.066102     -0.147763      0.155624
O	     12.22650     14.53672     -4.58191         0.236630     -0.085937      0.072597
O	      5.99804      4.23454     -4.22652         0.178555     -0.101172      0.116709
O	      6.21500     14.57794     -2.67482         0.019394     -0.148134      0.134737
O	     14.63785     12.36005     -0.45619        -0.077269     -0.107905      0.093359
O	     14.54529     10.75237    -10.70858        -0.026998     -0.121084      0.116236
O	      6.06323      6.23792     -2.25700         0.102924     -0.164474      0.121184
O	      6.18879     10.61415     -6.63398         0.014553     -0.144076      0.157571
O	     14.31885      8.38936     -4.40670         0.159995     -0.101506      0.113451
O	     14.54020     12.73556     -8.74751         0.005913     -0.123952      0.137386
O	      6.05638      8.23847     -0.25520         0.169277     -0.120439      0.174093
O	      6.20629     12.61325     -4.65916        -0.001190     -0.169515      0.157640
O	     14.32260     10.39564     -2.43215         0.154070     -0.113647      0.099835
O	     14.51468     14.70249     -6.77393         0.014008     -0.128789      0.133152
O	      4.04602      5.98538     -4.06815        -0.068515      0.180330     -0.125498
O	      4.29402     10.36615     -8.45008        -0.169103      0.101218     -0.074232
O	     12.36719      8.15847     -6.17031        -0.062960      0.152113     -0.180012
O	     12.40958     12.44664    -10.44873        -0.081051      0.107945     -0.119437
O	      4.26782      8.20515     -2.07476        -0.235160      0.129998     -0.221525
O	      4.35894     12.44755     -6.47469        -0.142989      0.087098     -0.074800
O	     12.29555     10.14012     -4.17874        -0.053613      0.157855     -0.163222
O	     12.39078     14.43732     -8.50581        -0.080238      0.115028     -0.092541
O	      4.04839     10.01935     -0.06412        -0.036774      0.172795     -0.141191
O	      4.11183     14.40286     -4.37995        -0.081745      0.058620     -0.150686
O	     12.37526     12.14952     -2.19752        -0.066918      0.167229     -0.161702
O	     12.40215     16.39748     -6.45059        -0.073139      0.122549     -0.117866
O	      6.24775      1.99690     -1.98785        -0.007043      0.121483     -0.118068
O	      6.11232      6.07717     -6.04325         0.009086      0.173337     -0.158741
O	     14.48813     10.07401      1.82842        -0.000139      0.123595     -0.127370
O	     14.37653      8.24290     -8.17196        -0.019170      0.169819     -0.194232
O	      6.22240      3.95702     -0.00340         0.006416      0.139311     -0.114641
O	      6.10349      8.04028     -4.00866        -0.026587      0.171714     -0.294890
O	     14.49436      6.11395     -2.14368        -0.005659      0.126339     -0.128063
O	     14.33512     10.23462     -6.25475         0.000265      0.144373     -0.145629
O	      6.23877      5.95752      1.96138         0.001264      0.117000     -0.147572
O	      6.17781     10.02028     -2.05976        -0.023133      0.311682     -0.178214
O	     14.47746      8.09912     -0.14262        -0.004565      0.125779     -0.141283
O	     14.33215     12.16040     -4.26057        -0.015357      0.172367     -0.157702
O	     16.53752      6.34101     -4.35710        -0.007200     -0.124805      0.108357
O	      0.06590      6.49436     -4.48352        -0.000317     -0.157753      0.187799
O	      8.24641      4.19827     -2.20684         0.009452     -0.126358      0.136689
O	      8.38454      8.50976     -6.59322         0.020347     -0.158746      0.199160
O	     16.41823      8.33086     -2.36878        -0.015689     -0.163851      0.174918
O	      0.04130      8.47580     -2.51631        -0.003460     -0.156433      0.165560
O	      8.27110      6.20191     -0.23686        -0.012599     -0.126723      0.135887
O	      8.35212     10.54676     -4.58356         0.021246     -0.180262      0.194407
O	     16.55007     10.32197     -0.38332        -0.008141     -0.113961      0.126896
O	      0.09968     10.47139     -0.54565         0.011882     -0.202741      0.186981
O	      8.25223      8.16881      1.76314        -0.001150     -0.134762      0.135885
O	      8.40722     12.55878     -2.54888         0.009770     -0.193018      0.156990
O	      2.08594      4.21411     -0.28887         0.080839     -0.098107      0.193658
O	      2.14732      8.50055     -4.51347         0.068754     -0.135199      0.147757
O	     10.31847      6.21949     -2.34238         0.091491     -0.118252      0.146055
O	     10.35258     10.58613     -6.60678         0.052682     -0.133251      0.146773
O	      2.06648      6.22029      1.69764         0.086487     -0.152045      0.123811
O	      2.12933     10.49703     -2.53728         0.050282     -0.154974      0.160468
O	     10.32822      8.30435     -0.25344         0.059313     -0.148787      0.117260
O	     10.38037     12.57730     -4.61915         0.044300     -0.171738      0.138295
O	      1.88649      2.10742     -2.09672         0.185625     -0.093862      0.086510
O	      2.09658      6.49599     -6.48180         0.112069     -0.121517      0.114350
O	     10.34612      4.29399     -4.28179         0.082812     -0.129722      0.135540
O	     10.37841      8.61056     -8.59502         0.070247     -0.138430      0.180923
O	      0.03209      3.93630     -1.94659        -0.033046      0.124444     -0.126923
O	      0.16651      8.30102     -6.29515        -0.100169      0.112001     -0.110337
O	      8.20086      5.97474     -4.01446         0.005591      0.123926     -0.135175
O	      8.12371     10.38299     -8.37583         0.138795      0.111201     -0.097002
O	     16.52033     10.09731     -4.14156        -0.002706      0.159938     -0.157648
O	      0.16120     10.28967     -4.32881        -0.101554      0.113010     -0.115984
O	      8.11856      7.98796     -2.02644         0.152535      0.077009     -0.081386
O	      8.15166     12.34047     -6.37551         0.034645      0.115566     -0.113394
O	      0.03479      7.90566      2.01321        -0.065274      0.109634     -0.127194
O	      0.15690     12.27382     -2.34005        -0.085559      0.112526     -0.133588
O	      8.21398      9.97030     -0.01126        -0.006427      0.142734     -0.146013
O	      8.41047     14.34345     -4.42296        -0.198974      0.090708     -0.114004
O	      2.19833      4.05735     -4.04096        -0.155539      0.111660     -0.132048
O	      2.03080      8.29995     -8.26725        -0.068818      0.115521     -0.117956
O	     10.32131      6.13258     -6.11961        -0.089127      0.139704     -0.148004
O	     10.32148     16.34993     -4.44753        -0.065443      0.184402     -0.153518
O	      2.23891      6.11304     -2.08171        -0.148898      0.084424     -0.151605
O	      2.06736     10.24576     -6.31049        -0.071790      0.145396     -0.144111
O	     10.50961      8.13754     -4.26234        -0.213083      0.107040     -0.096932
O	     10.32060     12.39620     -8.40954        -0.064178      0.143002     -0.134795
O	      2.26848      8.05562     -0.21305        -0.206900      0.120453     -0.063649
O	      2.05454     12.26827     -4.28076        -0.043004      0.129569     -0.144200
O	     10.51655     10.23082     -2.17315        -0.214789      0.091188     -0.112070
O	     10.32943     14.37684     -6.41143        -0.071067      0.136914     -0.191667
