# total energy = -871.89442000 eV
 
CRYSTAL
PRIMVEC
0.004413 5.932779 5.922497 
16.625700 4.210057 -4.190539 
-0.004916 8.414179 -8.399185 
PRIMCOORD
182 1
Li	      8.33261      2.14613     -2.11130         0.002070      0.020989     -0.019035
Li	      7.97068     12.36545     -0.72317         0.020754      0.006808     -0.000568
Li	     16.54399      4.35876     -4.28302         0.023584      0.016705     -0.019457
Li	      8.29236      4.09493     -0.16544         0.005431      0.016117     -0.022093
Li	      7.91040      8.66196     -4.48095         0.020269      0.001581     -0.010744
Li	     16.54450      6.27417     -2.37160         0.023671      0.015222     -0.013633
Li	      8.28211      6.11083      1.80689         0.007355      0.021726     -0.016767
Li	     16.58367      8.24390     -0.32168         0.016557      0.017421     -0.021055
Li	     16.06798     12.77453     -4.83994        -0.004455      0.033113     -0.027927
Li	      2.13396      2.11087     -0.19667         0.007014     -0.006570      0.005381
Li	      1.93036      6.07264     -4.10222         0.000388     -0.000117     -0.000977
Li	     10.41467      4.17784     -2.19192         0.003483     -0.004378      0.006078
Li	     10.34479      8.27548     -6.26291         0.009568     -0.005244      0.000385
Li	      2.06648      4.05609      1.84411         0.010390     -0.006749      0.016896
Li	      2.05260      8.10077     -2.22214        -0.008809      0.015388      0.009191
Li	     10.39552      6.12317     -0.21257         0.003839     -0.003499      0.006728
Li	     10.34706     10.25845     -4.29453         0.006302     -0.002640      0.000384
Li	      2.09130      6.08461      3.84073         0.016455     -0.017159      0.002467
Li	      2.03418     10.13335     -0.23378         0.001696     -0.002734     -0.012946
Li	     10.38968      8.14061      1.78828         0.006162     -0.009339     -0.000596
Li	     10.36544     12.23024     -2.36104         0.003958     -0.001314      0.000783
Li	      4.30662     12.30328     -0.48011        -0.024662      0.010931     -0.009532
Li	     12.57658      4.29450     -4.17019        -0.008714      0.000969     -0.006869
Li	     12.53575     14.39100     -2.54625        -0.011559      0.008155     -0.004673
Li	      4.23678      4.04143     -0.16455        -0.020215     -0.013101     -0.008238
Li	      4.29078      8.38592     -4.42827        -0.025059      0.010648     -0.003493
Li	     12.56108      6.16190     -2.30034        -0.016419      0.008549     -0.003385
Li	     12.53019     10.46559     -6.45412        -0.012679      0.009618     -0.008484
Li	      4.17352      6.11369      1.92433        -0.016715     -0.002220      0.001482
Li	      4.31178     10.40863     -2.47908        -0.028187      0.015588     -0.007124
Li	     12.52501      8.17130     -0.25291        -0.007461     -0.000489     -0.000919
Li	     12.57601     12.45837     -4.53565        -0.018497      0.006072     -0.005458
Li	      6.18024      3.98112     -2.06336         0.006067     -0.020453      0.010976
Li	     14.90236     10.18842     -8.18361        -0.013269     -0.009543      0.005343
Li	      6.21390      6.00686     -0.10401         0.000449     -0.018398      0.019252
Li	     14.56400      8.08902     -2.31250        -0.001216     -0.025017      0.016605
Li	      6.19110      8.00710      1.94681         0.002454     -0.015751      0.019435
Li	     14.56804     10.23830     -0.17159        -0.003235     -0.021295      0.020324
Ni	     16.61905     12.22684     -0.36889        -0.066509     -0.087496      0.056552
Ni	      0.05284     12.25017     -0.40249        -0.015252     -0.027809      0.023447
Ni	      8.29212      4.12731     -4.10779        -0.088209     -0.071070      0.037744
Ni	      8.33459      8.43330     -8.38562        -0.030174     -0.028144      0.038575
Ni	      0.00572      4.06563     -0.11136        -0.036185     -0.076484      0.087727
Ni	      0.05419      8.31543     -4.32751        -0.023383     -0.026988      0.035915
Ni	      8.33182      6.09267     -2.12945        -0.101078     -0.073942      0.084608
Ni	      8.33727     10.39609     -6.42815        -0.031624     -0.037388      0.027665
Ni	      0.00480      6.00768      1.89122        -0.077604     -0.059348      0.064348
Ni	      0.07911     10.31170     -2.39473        -0.032274      0.005807     -0.006461
Ni	      8.28058      8.09459     -0.17840        -0.015212     -0.046148      0.069551
Ni	      8.32500     12.36216     -4.42821        -0.039176     -0.043866      0.039953
Ni	      2.04443      4.12285     -2.17211        -0.019722      0.005136     -0.004477
Ni	      2.09322      8.39384     -6.40341        -0.058098     -0.019094      0.010478
Ni	     10.31686      6.22717     -4.23471        -0.052537     -0.007051     -0.003022
Ni	     10.43498     10.48400     -8.47922        -0.012506      0.001303     -0.008793
Ni	      2.08253      6.11611     -0.17194        -0.062983     -0.016376     -0.039659
Ni	      2.10205     10.37620     -4.43599        -0.019514      0.001222      0.022114
Ni	     10.34462      8.21679     -2.26355        -0.029949      0.018722      0.017964
Ni	     10.41416     12.45912     -6.49676        -0.062539     -0.016580     -0.011925
Ni	      2.07163      8.09425      1.77673        -0.021463      0.024795      0.021541
Ni	      2.09746     12.36640     -2.46169        -0.038280     -0.011660     -0.001123
Ni	     10.38465     10.19410     -0.29616        -0.118980     -0.006868     -0.034059
Ni	     10.41858     14.42993     -4.53003        -0.055291      0.013195      0.020198
Ni	      4.14394      4.18560     -4.16450         0.026418     -0.004453     -0.008233
Ni	      4.16678      8.44098     -8.42046         0.038172     -0.015372      0.012322
Ni	     12.43116      6.26226     -6.21934         0.085516      0.001106     -0.010720
Ni	     12.51738     16.46620     -4.58817         0.018902     -0.035283      0.000092
Ni	      4.11233      6.14079     -2.17168         0.057641      0.009987     -0.014561
Ni	      4.17050     10.41079     -6.43565         0.033049     -0.034387      0.073311
Ni	     12.41720      8.22856     -4.25169         0.100244      0.012097     -0.009020
Ni	     12.51534     12.51236     -8.53526         0.014975     -0.000572      0.037199
Ni	      4.14520      8.11761     -0.21577         0.022469      0.016669     -0.026519
Ni	      4.17058     12.38590     -4.47579         0.038420     -0.081077      0.049996
Ni	     12.47599     10.22709     -2.28975         0.050546     -0.005468      0.010516
Ni	     12.49339     14.46467     -6.53555         0.056715     -0.031246      0.014911
Ni	      6.17010      6.20681     -4.18340         0.023718      0.055673     -0.035925
Ni	      6.23480     10.50712     -8.52532        -0.002758      0.066698     -0.049230
Ni	     14.53180      8.31644     -6.31480         0.044500      0.005532     -0.006116
Ni	     14.53283     12.62971    -10.62578         0.121837      0.071030     -0.073188
Ni	      6.17509      8.19034     -2.21475         0.059331     -0.001792     -0.066365
Ni	      6.18883     12.50236     -6.55313         0.115958      0.069237     -0.067353
Ni	     14.53143     10.31395     -4.38083         0.033672      0.052022     -0.028196
Ni	     14.54290     14.58861     -8.62274         0.110352      0.055216     -0.046738
Ni	      6.16515     10.14870     -0.22115         0.113999      0.038511      0.009481
Ni	      6.19202     14.48775     -4.57554         0.091709      0.038879     -0.073427
Ni	     14.52676     12.31141     -2.38963         0.004253      0.035329     -0.062410
Ni	     14.54775     16.55509     -6.65899         0.101299      0.043552     -0.057104
O	      4.12726      4.27610     -2.28977         0.086747     -0.130288      0.195597
O	      3.97715      8.48855     -6.50661         0.202649     -0.092326      0.127094
O	     12.35935      6.34069     -4.33810         0.091244     -0.153344      0.163568
O	     12.51238     10.63582     -8.63255         0.101592     -0.145106      0.138006
O	      4.14704      6.07704     -0.30563         0.098819     -0.090470      0.117358
O	      3.99945     10.48474     -4.53857         0.212534     -0.122322      0.111176
O	     12.48350      8.33674     -2.35927         0.074126     -0.185063      0.145259
O	     12.29739     12.55902     -6.58982         0.179835     -0.116130      0.088097
O	      4.18654      8.24514      1.64211         0.084456     -0.141624      0.187097
O	      3.98624     12.46999     -2.55894         0.238381     -0.129661      0.095542
O	     12.49277     10.29906     -0.39591         0.079266     -0.151827      0.172017
O	     12.30102     14.52428     -4.63055         0.182017     -0.090218      0.121329
O	      6.06043      4.28338     -4.21754         0.126454     -0.145792      0.126884
O	      6.23996     14.56119     -2.70765         0.017223     -0.147625      0.162034
O	     14.68085     12.33288     -0.49054        -0.053938     -0.129851      0.132752
O	     14.59763     10.74884    -10.69539        -0.011716     -0.147139      0.139003
O	      6.03893      6.25053     -2.27058         0.057505     -0.122344      0.154188
O	      6.23598     10.63112     -6.63423         0.019962     -0.150647      0.136457
O	     14.70091      8.41550     -4.39873        -0.183553     -0.133522      0.121312
O	     14.59737     12.70144     -8.74407        -0.013698     -0.139760      0.138513
O	      6.10211      8.24623     -0.29698         0.073874     -0.153003      0.145017
O	      6.24949     12.60774     -4.68442         0.010365     -0.153126      0.150116
O	     14.40057     10.35768     -2.42635         0.188778     -0.104039      0.091904
O	     14.60320     14.68440     -6.75369        -0.009298     -0.149598      0.155390
O	      4.05220      6.06134     -4.04980        -0.063578      0.165106     -0.087025
O	      4.12863     10.34279     -8.29530        -0.059123      0.159810     -0.175951
O	     12.42660      8.14359     -6.13248        -0.058743      0.154611     -0.142491
O	     12.46863     12.46904    -10.47862        -0.073094      0.130129     -0.119448
O	      4.09152      8.01902     -2.09409        -0.088792      0.098624     -0.158413
O	      4.12085     12.33565     -6.39310        -0.073170      0.114987     -0.144007
O	     12.42635     10.12510     -4.16642        -0.052337      0.124212     -0.167714
O	     12.45995     14.40532     -8.44304        -0.060374      0.142111     -0.139226
O	      4.27263     10.18091     -0.13326        -0.170519      0.065234     -0.144319
O	      4.12820     14.24466     -4.40948        -0.074401      0.183587     -0.129249
O	     12.42860     12.10760     -2.19093        -0.059910      0.171834     -0.141214
O	     12.46586     16.37045     -6.48195        -0.068925      0.148068     -0.143446
O	      6.36918      7.93106      3.92163         0.010412      0.185691     -0.158205
O	      6.19320      6.05703     -6.04063         0.012760      0.221044     -0.167494
O	     14.57873      9.99821      1.81785        -0.008682      0.180231     -0.157635
O	     14.40085      8.25150     -8.16134        -0.018675      0.150541     -0.171184
O	      6.25364      3.99099     -0.04353         0.000314      0.118489     -0.144457
O	      6.15222      8.06471     -4.08049        -0.000072      0.154759     -0.182065
O	     14.57265      6.09467     -2.07945        -0.014970      0.159059     -0.177225
O	     14.40365     10.16250     -6.25250        -0.022549      0.161601     -0.150468
O	      6.23484      5.98255      1.92862        -0.004912      0.142660     -0.133660
O	      6.14727     10.03541     -2.04275        -0.019908      0.200796     -0.239637
O	     14.57352      8.06687     -0.15285        -0.007906      0.147090     -0.142413
O	     14.42041     12.16443     -4.24056        -0.030667      0.154560     -0.151732
O	      0.11712      2.20048     -0.23372         0.002875     -0.210721      0.144111
O	      0.08155      6.45744     -4.46710        -0.002848     -0.170166      0.175371
O	      8.32840      4.20612     -2.22120         0.009752     -0.146047      0.166182
O	      8.43508      8.50007     -6.49277        -0.006989     -0.138068      0.144683
O	     16.61104      8.33386     -2.40783        -0.004980     -0.166414      0.149179
O	      0.17465      8.46649     -2.45887         0.007014     -0.184427      0.152355
O	      8.33080      6.20249     -0.24794        -0.008939     -0.142600      0.154295
O	      8.44644     10.50434     -4.58562         0.011865     -0.153135      0.176686
O	     16.60716     10.33227     -0.41794        -0.004413     -0.106833      0.155749
O	      0.16393     10.37931     -0.55014        -0.005484     -0.143415      0.192744
O	      8.30244      8.18100      1.70493        -0.005604     -0.161979      0.140620
O	      8.46269     12.52609     -2.56751         0.013457     -0.181818      0.155486
O	      1.89871      4.18064     -0.13685         0.200155     -0.119882      0.097600
O	      2.18611      8.50385     -4.53061         0.064204     -0.185585      0.170868
O	     10.38800      6.26606     -2.33990         0.079528     -0.110772      0.141186
O	     10.49530     10.58500     -6.57577         0.051329     -0.155213      0.132858
O	      2.08646      6.18489      1.71659         0.071267     -0.144985      0.179611
O	      2.20311     10.49464     -2.55988         0.053117     -0.202224      0.183946
O	     10.37067      8.29620     -0.36580         0.078832     -0.141806      0.133251
O	     10.48711     12.55482     -4.62181         0.057880     -0.157995      0.170654
O	      1.86140      8.04463      3.68027         0.113356     -0.104851      0.112588
O	      2.17875     12.45573     -0.59201         0.052961     -0.175929      0.197959
O	     10.33893     10.21089      1.59092         0.086144     -0.080077      0.173311
O	     10.50236     14.52340     -2.65499         0.047202     -0.148996      0.143375
O	      0.00456      3.94502     -1.97339        -0.037110      0.131187     -0.175098
O	      0.17613      8.25751     -6.26439        -0.180215      0.118138     -0.121859
O	      8.23217      5.99890     -4.00515         0.015242      0.153952     -0.150241
O	      8.35777     10.33705     -8.32571        -0.038202      0.143769     -0.139714
O	     16.61257     10.14772     -4.17087        -0.006601      0.181711     -0.147907
O	      0.18747     10.24552     -4.31535        -0.233288      0.124440     -0.128680
O	      8.26016      7.96828     -2.05947         0.000183      0.152591     -0.139994
O	      8.49055     12.33859     -6.37404        -0.165323      0.110084     -0.118109
O	     16.59696     12.09297     -2.24392        -0.003741      0.144804     -0.096868
O	      0.17853     12.23536     -2.33405        -0.237013      0.119726     -0.119622
O	      8.09450     10.00308     -0.08045         0.120608      0.111937     -0.112837
O	      8.50271     14.29959     -4.40451        -0.158514      0.112970     -0.112781
O	      2.29018     10.00019      1.73404        -0.158395      0.144322     -0.073789
O	      2.01986      8.31093     -8.28203        -0.067490      0.219026     -0.198419
O	     10.32496      6.14589     -6.12251        -0.065881      0.141951     -0.137258
O	     10.38901     16.31559     -4.47005        -0.069176      0.155330     -0.135329
O	      2.25024      6.12053     -2.06075        -0.080754      0.124688     -0.169470
O	      2.02913     10.27039     -6.30836        -0.060442      0.186405     -0.199098
O	     10.34207      8.16104     -4.13883        -0.070731      0.102836     -0.163586
O	     10.38528     12.38665     -8.38187        -0.069168      0.145361     -0.161038
O	      2.22935      8.04556     -0.11618        -0.118620      0.119040     -0.148919
O	      2.02935     12.26041     -4.34561        -0.069276      0.190045     -0.187315
O	     10.58408     10.16351     -2.19945        -0.214054      0.095015     -0.130015
O	     10.35487     14.34149     -6.41046        -0.068687      0.169250     -0.163079
