# total energy = -878.42291295 eV
 
CRYSTAL
PRIMVEC
0.000313 5.933362 5.942402 
16.746783 4.140920 -4.146519 
-0.000494 8.274072 -8.286244 
PRIMCOORD
183 1
Li	      8.32480      8.06687      3.80170         0.017026      0.029061     -0.024385
Li	      8.25727      6.33999     -6.26087         0.017610      0.015732     -0.014755
Li	     16.50209     10.21830      1.64617         0.007483      0.006902     -0.005248
Li	     16.49687     14.35878     -2.49761         0.011537      0.017791     -0.018107
Li	      8.29900      4.17836     -0.17062         0.025378      0.022786     -0.018919
Li	      8.11182      8.38329     -4.43973         0.021720      0.014379     -0.003020
Li	     16.55137      6.26491     -2.31379         0.011530     -0.001167      0.002526
Li	     16.55138     10.39945     -6.45816         0.015169      0.012809     -0.011564
Li	      8.28353      6.08910      1.74508         0.026524      0.021232     -0.028421
Li	      8.23627     10.22126     -2.39375         0.021598      0.016022     -0.014657
Li	     16.54386      8.24711     -0.33481         0.008843     -0.004737      0.001349
Li	     16.54480     12.38266     -4.47515         0.016701      0.010510     -0.013968
Li	      2.09310      2.03338     -0.04996         0.006948     -0.008517      0.008524
Li	      2.10615      6.19033     -4.20947         0.003667      0.006692     -0.005156
Li	     10.43067      4.10540     -2.09453         0.022642     -0.008983     -0.008349
Li	     10.51098      8.28426     -6.26187         0.014778     -0.011724      0.016254
Li	      2.09969      4.00988      1.92347         0.012078     -0.003073      0.001354
Li	      2.11248      8.16228     -2.24172         0.009077      0.005956     -0.009491
Li	     10.51260      6.06416     -0.18141         0.019693     -0.007690     -0.010629
Li	     10.51093     10.27585     -4.31264         0.034855     -0.009363      0.019417
Li	      2.09287      5.98461      3.91182         0.008177     -0.005158      0.007399
Li	      2.10365     10.13714     -0.24553         0.001488      0.004492      0.000619
Li	     10.44074      8.00488      1.83808         0.014439      0.000450      0.004347
Li	     10.41005     12.16615     -2.32151         0.014670     -0.016111      0.036839
Li	      4.22500      8.01851      3.84958        -0.005797      0.007984     -0.006403
Li	      4.30077      6.30367     -6.23024        -0.022534      0.013966     -0.010014
Li	     12.72868      4.22089     -4.22444        -0.017146     -0.017655      0.012119
Li	     12.72541     14.28225     -2.42608        -0.013867     -0.002970      0.003122
Li	      4.28841      4.13991     -0.11432        -0.002639      0.010397     -0.007019
Li	      4.43315      8.34263     -4.38663        -0.007136      0.012140     -0.019672
Li	     12.78331      6.17460     -2.24745        -0.025916     -0.005785      0.017984
Li	     12.75887     10.29562     -6.38548        -0.037574     -0.000758      0.016893
Li	      4.28611      6.04586      1.79756        -0.003981      0.007200     -0.010300
Li	      4.30943     10.18095     -2.35357        -0.005896      0.010269     -0.013814
Li	     12.77690      8.17076     -0.24000        -0.018267     -0.013322      0.005874
Li	     12.72689     12.29037     -4.32959        -0.037774     -0.009489     -0.003355
Li	      6.29314      4.13006     -2.03281         0.001114     -0.009930      0.009986
Li	      6.29232      7.94871      1.79399        -0.000076     -0.008501      0.010371
Li	      6.29891     12.16816     -2.23842        -0.004308     -0.015627      0.027724
Ni	     16.69143      6.15506     -6.16330         0.000942     -0.018369      0.017842
Ni	     16.69242     16.22466     -4.36497        -0.003471     -0.015765      0.017180
Ni	      8.41032     10.05367      1.81188        -0.006399     -0.035126      0.022925
Ni	      8.40131      8.26109     -8.24986        -0.004344     -0.036341      0.021472
Ni	     16.69952      8.12995     -4.18237        -0.006238     -0.018713      0.017562
Ni	     16.69638     12.26665     -8.32655        -0.002180     -0.025311      0.015507
Ni	      8.38967      6.09727     -2.13315        -0.027275     -0.029269      0.004317
Ni	      8.40878     10.23835     -6.29069        -0.053983     -0.025962      0.020661
Ni	     16.70192     10.11168     -2.19932        -0.007307     -0.018953      0.023373
Ni	     16.70096     14.24573     -6.34093         0.002248     -0.007516      0.018893
Ni	      8.39356      8.05152     -0.15671        -0.033546     -0.006584      0.038510
Ni	      8.41711     12.21075     -4.29428        -0.060305     -0.019861      0.024163
Ni	      2.07893      4.11823     -2.14218        -0.086898     -0.007786     -0.001685
Ni	      2.06478      8.26746     -6.29594        -0.133011     -0.025703      0.007560
Ni	     10.48469      6.16284     -4.17685        -0.087164     -0.022044     -0.028434
Ni	     10.49290     10.30773     -8.33974        -0.059395     -0.031690     -0.049346
Ni	      2.05955      6.10153     -0.16919        -0.132209     -0.005915      0.007235
Ni	      2.06994     10.24424     -4.31804        -0.129633     -0.022188      0.018855
Ni	     10.46520      8.14637     -2.21830        -0.044923      0.009857      0.000153
Ni	     10.45626     12.28912     -6.35964        -0.003658      0.009845     -0.002853
Ni	      2.07748      8.07178      1.82005        -0.084940     -0.000854      0.007885
Ni	      2.09029     12.21458     -2.32874        -0.084847     -0.007054      0.027064
Ni	     10.48662     10.10163     -0.22686        -0.087555      0.035072      0.008148
Ni	     10.49107     14.23429     -4.35039        -0.060024      0.056845      0.024402
Ni	      4.17014     10.06421      1.80554         0.011166     -0.010136      0.008420
Ni	      4.19234      8.27898     -8.27863         0.018282     -0.009992      0.016089
Ni	     12.58832      6.16192     -6.16924         0.023153     -0.011989      0.011552
Ni	     12.58618     16.23827     -4.38310         0.023672      0.000749     -0.001581
Ni	      4.17400      6.11902     -2.15681         0.019563      0.016939     -0.000136
Ni	      4.20715     10.25562     -6.30714         0.018584     -0.001596      0.002424
Ni	     12.59997      8.16102     -4.19123        -0.005477     -0.023912      0.029621
Ni	     12.55928     12.29799     -8.35460         0.024628     -0.010603      0.021777
Ni	      4.17307      8.08014     -0.17648         0.017405     -0.007017     -0.009576
Ni	      4.19970     12.23165     -4.33421         0.024576     -0.003755     -0.004633
Ni	     12.59997     10.12320     -2.22577        -0.013308     -0.026360      0.025484
Ni	     12.57020     14.26177     -6.36932         0.010650     -0.023075      0.011599
Ni	      6.24684      6.16992     -4.21464         0.085454      0.027012     -0.082320
Ni	      6.26144     10.32797     -8.37615         0.076446      0.005887     -0.077200
Ni	     14.62409      8.17822     -6.19249        -0.009105      0.030160     -0.064780
Ni	     14.62381     12.30907    -10.33115         0.014843      0.012240     -0.070645
Ni	      6.26858      8.14108     -2.19530         0.022105      0.070125     -0.037189
Ni	      6.27702     12.33205     -6.40012         0.070050      0.086435     -0.063500
Ni	     14.64187     10.14956     -4.21810        -0.035019      0.064913     -0.057394
Ni	     14.63757     14.27498     -8.35283        -0.038236      0.063269     -0.076356
Ni	      6.24718     10.12904     -0.22808         0.082648      0.029283     -0.014540
Ni	      6.25840     14.30629     -4.41023         0.087876      0.074652     -0.036546
Ni	     14.62667     12.11923     -2.24230         0.007185      0.065506     -0.029575
Ni	     14.62267     16.24718     -6.38418        -0.010970      0.082968     -0.024238
O	      4.16614      4.21677     -2.22911         0.085502     -0.126243      0.121170
O	      4.08408      8.36424     -6.38454         0.123109     -0.106685      0.110884
O	     12.34118      6.25465     -4.18441         0.200850     -0.153911      0.100252
O	     12.34500     10.40423     -8.34574         0.159749     -0.177695      0.127695
O	      4.07132      6.18954     -0.26307         0.104747     -0.128155      0.127520
O	      4.08753     10.34003     -4.41822         0.112285     -0.113006      0.124464
O	     12.46933      8.25453     -2.32256         0.084371     -0.156246      0.166282
O	     12.35155     12.37873     -6.46458         0.092928     -0.159639      0.147176
O	      4.16547      8.15598      1.72681         0.086507     -0.123824      0.130402
O	      4.18428     12.30730     -2.42580         0.089840     -0.131613      0.112387
O	     12.34283     10.11052     -0.32075         0.201476     -0.104417      0.161443
O	     12.34234     14.25067     -4.47113         0.162195     -0.122007      0.154415
O	      6.32478      4.26112     -4.26585        -0.017615     -0.118292      0.113046
O	      6.32834     14.36222     -2.53349         0.009735     -0.113671      0.121995
O	     14.60952      6.30473     -6.31126         0.004092     -0.134361      0.135963
O	     14.60613     16.36760     -4.51050        -0.001267     -0.127622      0.126654
O	      6.30236      6.22559     -2.33816         0.000569     -0.151649      0.137835
O	      6.33718     10.46105     -6.50862        -0.007225     -0.142205      0.136213
O	     14.62608      8.28047     -4.32694         0.037536     -0.127795      0.126045
O	     14.61604     12.40760     -8.46069         0.005613     -0.136212      0.123165
O	      6.30329      8.25321     -0.28843        -0.004038     -0.125953      0.135837
O	      6.33159     12.42931     -4.49404        -0.000175     -0.130458      0.133012
O	     14.62910     10.25404     -2.34921         0.030503     -0.120263      0.127920
O	     14.61452     14.37909     -6.48630         0.040753     -0.128072      0.144972
O	      4.16601      6.03010     -4.07081        -0.072397      0.129511     -0.126834
O	      4.17668     10.17941     -8.21373        -0.064673      0.145490     -0.136037
O	     12.72312      8.18398     -6.08767        -0.096511      0.091457     -0.203005
O	     12.73573     12.32638    -10.24466        -0.113903      0.109755     -0.175593
O	      4.16601      8.01693     -2.07335        -0.103375      0.119033     -0.121576
O	      4.18842     12.16990     -6.24275        -0.063202      0.130280     -0.133762
O	     12.73139     10.09686     -4.16201        -0.123116      0.138298     -0.145590
O	     12.71489     14.21946     -8.29770        -0.107357      0.157110     -0.136481
O	      4.16408      9.98782     -0.09183        -0.071791      0.128767     -0.134353
O	      4.17733     14.14088     -4.24838        -0.066904      0.135817     -0.135975
O	     12.73667     12.01617     -2.24299        -0.094522      0.204508     -0.097771
O	     12.72801     16.15454     -6.39993        -0.096325      0.194737     -0.121341
O	      6.29743      1.99172     -1.98835         0.006352      0.131411     -0.130270
O	      6.28846     11.98492     -0.16192         0.007234      0.175030     -0.147192
O	     14.61952      3.89398     -3.89864        -0.004297      0.122499     -0.135707
O	     14.61472      8.03786     -8.04367        -0.000345      0.142862     -0.139298
O	      6.30620      3.90690      0.00046         0.009948      0.183159     -0.162169
O	      6.28341      8.01230     -4.04863         0.004250      0.186071     -0.176941
O	     14.67992      5.88094     -1.91314        -0.003739      0.139981     -0.140528
O	     14.67332     10.02663     -6.06459        -0.002809      0.135446     -0.155876
O	      6.30054      5.94228      2.02521         0.012984      0.145934     -0.171173
O	      6.28474     10.04893     -2.08057         0.007580      0.159484     -0.177570
O	     14.67665      7.84553      0.05655        -0.005939      0.151566     -0.137772
O	     14.66818     11.99463     -4.09205        -0.005683      0.156337     -0.130100
O	      0.12529      2.12292     -0.14920         0.013720     -0.156548      0.155796
O	      0.13180      6.26066     -4.29354         0.017595     -0.176717      0.171133
O	      8.40176      4.20901     -2.24359        -0.005513     -0.137782      0.147999
O	      8.52539      8.36260     -6.38346         0.016366     -0.146669      0.167036
O	      0.13594      4.10367      1.83315         0.004189     -0.167511      0.168287
O	      0.14164      8.23894     -2.31234         0.004808     -0.175651      0.190929
O	      8.54988      6.17057     -0.24705         0.004141     -0.160351      0.149868
O	      8.54209     10.33874     -4.40369         0.003696     -0.155736      0.142565
O	      0.12668      6.08031      3.81450         0.016314     -0.158003      0.161752
O	      0.13402     10.21831     -0.32739         0.017726     -0.177993      0.166129
O	      8.41465      8.15695      1.73316         0.001601     -0.140000      0.135402
O	      8.36952     12.29948     -2.38579        -0.000893     -0.131645      0.134808
O	      2.03001      4.20818     -0.25268         0.059214     -0.144263      0.139250
O	      2.00706      8.35396     -4.40493         0.084385     -0.122716      0.128279
O	     10.49091      6.23395     -2.30481         0.043569     -0.193465      0.175323
O	     10.51613     10.35814     -6.47134         0.045649     -0.138214      0.156866
O	      2.03194      6.18222      1.72577         0.067812     -0.135034      0.140684
O	      2.04158     10.32459     -2.42252         0.062570     -0.134873      0.137854
O	     10.49602      8.22396     -0.31502         0.042586     -0.168979      0.136831
O	     10.50205     12.37340     -4.31890         0.053556     -0.174967      0.110901
O	      2.04949      2.22489     -2.22780         0.051931     -0.138078      0.142121
O	      2.03470      6.37091     -6.37895         0.087978     -0.131934      0.124051
O	     10.53967     10.19899      1.66894         0.043180     -0.140092      0.139395
O	     10.55994      8.41220     -8.40792         0.029068     -0.134550      0.140658
O	     16.52925      8.07045     -6.10693         0.074099      0.099026     -0.109699
O	     16.52525     12.20305    -10.24775         0.078155      0.099472     -0.101926
O	      8.54948      6.03719     -4.08469        -0.167908      0.114358     -0.088877
O	      8.56094     10.17925     -8.22893        -0.142744      0.103703     -0.095629
O	     16.53666     10.04981     -4.11995         0.136132      0.097172     -0.099093
O	     16.52502     14.18286     -8.25873         0.122772      0.103172     -0.088439
O	      8.39478      7.98575     -2.04388        -0.012519      0.113050     -0.118377
O	      8.51979     12.16246     -6.23167        -0.088839      0.109345     -0.108223
O	     16.53555     12.03518     -2.13665         0.068699      0.108481     -0.097163
O	     16.52459     16.16545     -6.27837         0.076424      0.097991     -0.107158
O	      8.55285      9.99713     -0.09770        -0.164560      0.083773     -0.119493
O	      8.55346     14.13348     -4.22269        -0.126332      0.105411     -0.122419
O	      2.05601      4.02707     -4.03045        -0.053371      0.137141     -0.135149
O	      2.04141     14.10096     -2.24435        -0.034856      0.152532     -0.158696
O	     10.47145     11.99748     -0.13078        -0.066166      0.157356     -0.144794
O	     10.47041     16.13582     -4.29414        -0.093092      0.099155     -0.123252
O	      2.02639      6.00679     -2.06152        -0.049395      0.132218     -0.139173
O	      2.01003     10.15719     -6.20642        -0.029569      0.160404     -0.156743
O	     10.45789      8.04950     -4.12165        -0.057247      0.153971     -0.133101
O	     10.45585     12.18048     -8.40538        -0.082577      0.137269     -0.095477
O	      2.02889      7.99170     -0.06960        -0.050691      0.138227     -0.132816
O	      2.04087     12.13421     -4.21741        -0.023985      0.154684     -0.154078
O	     10.44683     10.06634     -2.11110        -0.053575      0.184238     -0.159239
O	     10.43027     14.23253     -6.23095        -0.069491      0.126539     -0.132336
