# total energy = -876.74160220 eV
 
CRYSTAL
PRIMVEC
0.001751 5.931949 5.940291 
16.677943 4.158974 -4.160011 
-0.004203 8.312968 -8.324140 
PRIMCOORD
183 1
Li	      8.29429      8.07412      3.79561         0.015106     -0.060555      0.018974
Li	      8.03371     12.38541     -0.53239         0.056147      0.015181     -0.069947
Li	     16.46627      4.32404     -4.32112         0.026588      0.026977     -0.033129
Li	     16.58142     14.27657     -2.49630         0.014126     -0.003570     -0.015026
Li	      8.24566      4.19757     -0.15256         0.027030     -0.001902      0.055962
Li	      8.07969      8.39691     -4.48832         0.073100      0.072565     -0.001666
Li	     16.48127      6.30877     -2.34825         0.021412      0.022543     -0.024841
Li	     16.59070     10.42099     -6.37310         0.007961      0.011296     -0.010834
Li	      8.26876      6.08524      1.75584         0.018162     -0.007025     -0.006009
Li	      8.10079     10.39015     -2.48601         0.078970     -0.021704     -0.015220
Li	     16.43185      8.28614     -0.36382         0.005063      0.023577     -0.020921
Li	     16.45098     12.42517     -4.52033         0.009114      0.008803      0.007986
Li	      2.06750      2.00605     -0.03322         0.017613      0.014072     -0.011812
Li	      2.03716      6.21454     -4.26884         0.005020     -0.022646      0.018432
Li	     10.41667      4.17471     -2.16824         0.009143     -0.004875      0.019943
Li	     10.37999      8.24801     -6.26756        -0.019173      0.020412     -0.010665
Li	      2.07599      3.99794      1.94940        -0.001151      0.009190     -0.005291
Li	      2.14386      8.23066     -2.28037         0.016829     -0.007657      0.000048
Li	     10.51682      6.13267     -0.20997         0.032128     -0.012172      0.007684
Li	     10.42845     10.16235     -4.33286        -0.023594     -0.051779     -0.015998
Li	      2.06889      5.96431      3.94140         0.008747      0.008548     -0.009140
Li	      2.15124     10.21107     -0.31808         0.017035     -0.006305      0.008472
Li	     10.42284      8.08038      1.81692         0.005032     -0.007117      0.024976
Li	     10.42543     12.17439     -2.29334        -0.010028     -0.017527      0.006985
Li	      4.20590      8.00734      3.85110        -0.021588      0.011749     -0.007134
Li	      4.43076      6.40133     -6.38012        -0.021319      0.015401     -0.016193
Li	     12.72432     10.13815      1.69605        -0.027507     -0.002533      0.035014
Li	     12.58392     14.23848     -2.40639         0.009343     -0.000511     -0.039358
Li	      4.23615      4.09768     -0.09097        -0.021257      0.006099     -0.008632
Li	      4.44309      8.35954     -4.44261        -0.008299      0.018915     -0.018592
Li	     12.76403      6.23554     -2.29692        -0.064253      0.001743     -0.028011
Li	     12.59509     10.32469     -6.33399        -0.015713      0.017561     -0.019955
Li	      4.23111      6.03748      1.83680        -0.026584      0.004770     -0.004610
Li	      4.48173     10.38839     -2.47595        -0.004632     -0.002903     -0.001664
Li	     12.63322      8.15744     -0.26377        -0.003954     -0.012859      0.011648
Li	     12.64920     12.35803     -4.44785         0.033467     -0.007998      0.075858
Li	      6.27080      4.09432     -2.00776        -0.012626     -0.002266      0.016277
Li	     14.61907     10.22309     -8.24327        -0.018190     -0.024779      0.019140
Li	      6.28441      7.93373      1.80226        -0.010139     -0.012485      0.013370
Ni	     16.61920      6.19231     -6.19232         0.106007     -0.093542      0.040902
Ni	     16.65542     16.25851     -4.40865        -0.012084     -0.047441      0.056705
Ni	      8.36195      4.11574     -4.10603        -0.023865     -0.042024      0.055155
Ni	      8.32802     14.23114     -2.37393         0.035558     -0.050229     -0.045459
Ni	     16.62749      8.18409     -4.22490         0.017292     -0.036419      0.033209
Ni	     16.65349     12.32061     -8.35644        -0.023827     -0.051304      0.035329
Ni	      8.36532      6.09080     -2.12015        -0.052852     -0.032790      0.028104
Ni	      8.32129     10.27837     -6.33976         0.044395      0.010849      0.091046
Ni	     16.64580     10.16806     -2.24633        -0.013112      0.007165      0.043291
Ni	     16.64381     14.28977     -6.38211        -0.019131     -0.037358      0.054482
Ni	      8.41837      8.05905     -0.13895        -0.100997     -0.028879      0.015162
Ni	      8.34903     12.26463     -4.36437        -0.717401     -0.493740      0.459405
Ni	      2.08900      4.12368     -2.14112        -0.133761     -0.026833     -0.044538
Ni	      2.06629      8.29762     -6.32496        -0.117769     -0.019736      0.011693
Ni	     10.45543      6.20165     -4.25059        -0.168329     -0.038848      0.067454
Ni	     10.43051     10.35493     -8.38330        -0.082361      0.016474     -0.022915
Ni	      2.04077      6.08953     -0.15308        -0.078952     -0.003565     -0.020119
Ni	      2.06511     10.27203     -4.34682        -0.117266     -0.018842      0.000389
Ni	     10.39901      8.14810     -2.23536        -0.062410     -0.034306     -0.031734
Ni	     10.43276     12.31986     -6.40677        -0.150630     -0.004364     -0.184043
Ni	      2.05559      8.07473      1.82369        -0.088488      0.058371      0.044725
Ni	      2.06617     12.25127     -2.36511        -0.135763     -0.005330      0.029353
Ni	     10.44354     10.10348     -0.21666        -0.183355     -0.003129      0.055073
Ni	     10.43619     14.30331     -4.40307        -0.140696      0.197262     -0.004297
Ni	      4.16746     10.07460      1.78702        -0.011878      0.033780      0.014301
Ni	      4.19485      8.31562     -8.32477        -0.007147      0.006195      0.020615
Ni	     12.53893     12.14098     -0.28112         0.347241     -0.044961      0.082779
Ni	     12.53107     10.36980    -10.36838        -0.021345     -0.018828      0.010821
Ni	      4.16431      6.11568     -2.14564         0.013016      0.010653     -0.012708
Ni	      4.19758     10.29785     -6.34767        -0.008786     -0.012217      0.000096
Ni	     12.50728      8.20748     -4.25954         0.036440      0.015785      0.084554
Ni	     12.52551     12.34500     -8.40333        -0.008301     -0.010239      0.024961
Ni	      4.14037      8.07410     -0.16330         0.019731     -0.009983      0.008854
Ni	      4.19219     12.27411     -4.36899        -0.133145     -0.065123      0.048002
Ni	     12.48599     10.13740     -2.24165         0.037903      0.042037     -0.065463
Ni	     12.53468     14.29343     -6.38409         0.003074      0.000274     -0.002670
Ni	      6.25251      6.12136     -4.14963         0.034420      0.057259     -0.040396
Ni	      6.24075     10.38764     -8.42735         0.049435      0.049012     -0.074692
Ni	     14.55373      8.25950     -6.26317         0.208269      0.015950     -0.059038
Ni	     14.58643     12.35279    -10.38268        -0.013927      0.038059     -0.016926
Ni	      6.25265      8.10517     -2.16672         0.060170      0.020641     -0.023088
Ni	      6.22227     12.39758     -6.46641         0.155765      0.036424     -0.251269
Ni	     14.53947     10.26633     -4.32919         0.109790      0.043788     -0.060959
Ni	     14.56736     14.31375     -8.39823        -0.019582      0.055316     -0.009764
Ni	      6.23277     10.10196     -0.20989         0.082846      0.035248     -0.045954
Ni	      6.22305     14.35855     -4.47072         0.155017      0.219602     -0.006542
Ni	     14.55487     12.23118     -2.33707         0.009470      0.123256     -0.032585
Ni	     14.56828     16.30137     -6.40223        -0.010026      0.004293     -0.038823
O	      4.15527      4.23586     -2.25339         0.113871     -0.145335      0.140503
O	      4.08217      8.40336     -6.43048         0.108421     -0.130030      0.123884
O	     12.47832      6.33611     -4.34400         0.200010     -0.062980      0.579638
O	     12.49466     10.46458     -8.49027         0.099670     -0.143658      0.138924
O	      3.91338      6.15831     -0.20637         0.217709     -0.123050      0.108077
O	      4.08445     10.37604     -4.45522         0.118325     -0.111433      0.135021
O	     12.30801      8.25104     -2.32464         0.147935     -0.102644      0.123038
O	     12.28592     12.31130     -6.49135         0.198567     -0.128112      0.159980
O	      4.12802      8.16701      1.72007         0.145102     -0.134907      0.149566
O	      4.08459     12.35688     -2.47101         0.139299     -0.134763      0.121326
O	     12.30262     10.13384     -0.33577         0.301014     -0.002723      0.144644
O	     12.28722     14.38656     -4.39629         0.187882     -0.132145      0.119377
O	      6.26635     10.16233      1.69880         0.022794     -0.146423      0.130793
O	      6.26957     14.43629     -2.59592        -0.021345     -0.134616      0.094004
O	     14.50240      6.38315     -6.37656        -0.027644     -0.037380      0.138503
O	     14.56704     10.48006    -10.45413         0.040291     -0.130593      0.115705
O	      6.23789      6.19951     -2.27227         0.023026     -0.136471      0.140520
O	      6.27116     10.52365     -6.54207        -0.035187     -0.084728      0.138580
O	     14.55809      8.38621     -4.39813        -0.017564     -0.164129      0.108659
O	     14.56714     12.42608     -8.51099         0.039446     -0.125482      0.135592
O	      6.28351      8.22556     -0.27549         0.003588     -0.126135      0.149640
O	      6.29684     12.48916     -4.59312         0.460107     -0.244773      0.269513
O	     14.57068     10.34589     -2.45560         0.002708     -0.194465      0.143216
O	     14.55176     14.42908     -6.52619         0.029591     -0.098732      0.122966
O	      4.34125      6.07230     -4.11174        -0.136584      0.097158     -0.104693
O	      4.14395     10.22306     -8.25726        -0.120100      0.105398     -0.110221
O	     12.67700      8.26243     -6.21479        -0.221706     -0.039005     -0.151176
O	     12.68343     12.31188    -10.33830        -0.103444      0.132255     -0.141590
O	      4.15099      7.98510     -2.04395        -0.072564      0.146648     -0.143072
O	      4.14163     12.21060     -6.27673        -0.036423      0.126731     -0.116793
O	     12.45625     10.08729     -4.15418        -0.089773      0.110191     -0.119633
O	     12.66428     14.23794     -8.41854        -0.148681      0.142365     -0.097031
O	      4.15613      9.98188     -0.09437        -0.069281      0.122918     -0.138278
O	      4.14236     14.18193     -4.29634        -0.047365      0.111498     -0.120646
O	     12.48458     12.03630     -2.17477        -0.438335      0.027311     -0.708849
O	     12.67491     16.31735     -6.31170        -0.135967      0.116340     -0.144075
O	      6.25298      7.93870      3.92926        -0.036449      0.082699     -0.135027
O	      6.26283      6.02058     -5.99884         0.000980      0.169040     -0.146939
O	     14.62231      3.90701     -3.89791        -0.000949      0.151567     -0.199877
O	     14.57568      8.19637     -8.11846         0.014369      0.206141     -0.120147
O	      6.24715      3.93838     -0.01980        -0.038582      0.155302     -0.105627
O	      6.26762      7.96216     -4.02282         0.013376      0.162730     -0.170187
O	     14.63575      5.87986     -1.92365        -0.001461      0.186193     -0.166293
O	     14.61326     10.11336     -6.21473        -0.025705      0.119708     -0.169792
O	      6.25881      5.96349      1.99677        -0.029335      0.143511     -0.150176
O	      6.28660      9.96137     -2.06085         0.018229      0.182726     -0.175429
O	     14.55830      7.84480      0.07516         0.013155      0.175532     -0.157225
O	     14.56091     12.11147     -4.18961         0.032751      0.166167     -0.193824
O	      0.09020      2.14545     -0.16291        -0.004458     -0.155162      0.178351
O	      0.02361      6.26239     -4.28687         0.006523     -0.131464      0.139667
O	      8.37231      4.20104     -2.21372         0.001400     -0.166335      0.134637
O	      8.44300      8.38326     -6.43994        -0.021896     -0.123825      0.130692
O	      0.10200      4.13847      1.80374         0.009559     -0.165941      0.161892
O	      0.16880      8.26591     -2.33704         0.006332     -0.146617      0.152787
O	      8.55499      6.18751     -0.25218        -0.005053     -0.158618      0.157852
O	      8.46938     10.38327     -4.46519        -0.011191     -0.660329      0.024173
O	      0.10126      6.09856      3.80037         0.012672     -0.217238      0.146264
O	      0.17209     10.24074     -0.35218         0.006105     -0.152755      0.137286
O	      8.38669      8.15416      1.75373        -0.007718     -0.155529      0.120829
O	      8.46703     12.35348     -2.48261        -0.009421      0.002594      0.597525
O	      2.07284      4.20604     -0.25495         0.046237     -0.140224      0.154553
O	      2.02985      8.36128     -4.42923         0.084706     -0.114885      0.119343
O	     10.44915      6.22979     -2.36181         0.020578     -0.134708      0.118080
O	     10.44058     10.44475     -6.49575         0.092823     -0.129570      0.173312
O	      2.07927      6.16706      1.72405         0.060519     -0.192414      0.142375
O	      2.04013     10.35962     -2.45368         0.047192     -0.128190      0.125252
O	     10.48469      8.23926     -0.16839         0.094500     -0.109534      0.102542
O	     10.48521     12.42652     -4.52606        -0.185758     -0.218856      0.210234
O	      2.06945      2.23696     -2.22031         0.105060     -0.110385      0.117144
O	      2.03189      6.40039     -6.39462         0.080231     -0.112887      0.121730
O	     10.47092      4.30304     -4.26535         0.031967     -0.140968      0.097062
O	     10.44714     14.38238     -2.52271         0.050949     -0.182054      0.129024
O	     16.47639      8.11361     -6.14403         0.058083      0.172081     -0.091688
O	     16.47978     12.23976    -10.27407         0.130049      0.118594     -0.108368
O	      8.18153      6.03359     -4.04556         0.128385      0.125885     -0.093564
O	      8.35005     10.20469     -8.23801        -0.004957      0.134134     -0.169974
O	      0.11090      5.96302     -0.03703        -0.169573      0.111769     -0.106965
O	     16.46500     14.23767     -8.29079         0.152763      0.120096     -0.125718
O	      8.45661      7.99251     -2.05168        -0.070658      0.131906     -0.077459
O	      8.50167     12.23551     -6.29533        -0.039888      0.111508     -0.951748
O	     16.62879     12.07271     -2.15527         0.091420      0.046357     -0.108759
O	     16.46856     16.19711     -6.32713         0.145893      0.116286     -0.124737
O	      8.51202      9.98844     -0.06788        -0.111014      0.111779     -0.131082
O	      8.50244     14.19227     -4.31139        -0.020517      0.977303     -0.061071
O	      2.05648      4.06694     -4.03298        -0.053250      0.184615     -0.127508
O	      2.00356      8.21080     -8.21696        -0.029552      0.124233     -0.132385
O	     10.49837     12.01267     -0.20586        -0.206666      0.123192     -0.130636
O	     10.41943     16.20109     -4.35041        -0.059559      0.078295     -0.143904
O	      2.05289      6.01541     -2.05126        -0.067862      0.153797     -0.153691
O	      1.99062     10.18794     -6.23633        -0.047240      0.117116     -0.112170
O	     10.43375      8.07948     -4.29787        -0.011351      0.137256     -0.102347
O	     10.42192     12.26858     -8.30248        -0.061858      0.139607     -0.104291
O	      2.02162      7.96631     -0.06416        -0.057976      0.154966     -0.149132
O	      1.99767     12.16320     -4.25674        -0.032456      0.139416     -0.148112
O	     10.35110     10.05282     -2.08250        -0.016309      0.163136     -0.115140
O	     10.42855     14.21345     -6.29387        -0.061320      0.141254     -0.135825
