# total energy = -90.11576186 eV
 
CRYSTAL
PRIMVEC
-0.000026 2.111602 2.111913 
8.292895 2.085754 -2.086166 
-0.003450 4.177708 -4.178372 
PRIMCOORD
16 1
Li	      4.31368      4.22234     -0.00033         0.061916     -0.015976      0.015599
Li	      6.03054      4.20881     -2.10017        -0.002516     -0.015720      0.018231
Li	      4.32834      6.26257     -2.04212         0.000938      0.016241     -0.013445
Li	      6.04416      6.25040     -4.14025        -0.061652      0.015234     -0.015412
Mn	      8.18842      4.18335      0.03933        -0.180495      0.024220     -0.025443
Mn	      2.17304      2.11129     -0.00050         0.178501     -0.024983      0.024238
Ni	      8.18481      6.29400     -2.07196         0.001085     -0.014304      0.013531
Ni	      2.17350      4.17848     -2.06787         0.000126      0.010304     -0.011577
O	      6.28217      6.29067     -2.06928        -0.142390     -0.004845      0.005126
O	      0.11044      4.21287     -2.10187        -0.044709      0.055606     -0.056328
O	      6.38117      4.19226      0.03008         0.113091     -0.011126      0.011318
O	      0.13832      2.07579      0.03490         0.001645     -0.059298      0.058643
O	      1.95499      4.17357      0.04842         0.044923     -0.055416      0.055862
O	      4.07620      4.18134     -2.07159         0.140655      0.004374     -0.003110
O	      1.92693      6.31088     -2.08824        -0.001030      0.060674     -0.062062
O	      3.98026      2.10242      0.00812        -0.110090      0.015015     -0.015170
