# total energy = -878.42940739 eV
 
CRYSTAL
PRIMVEC
0.000495 5.944351 5.945801 
16.698292 4.156098 -4.155715 
-0.003716 8.310083 -8.311573 
PRIMCOORD
183 1
Li	      8.36525      8.07896      3.77823         0.001783      0.012449     -0.010089
Li	      8.11083      6.43161     -6.41746         0.002814      0.027815     -0.022874
Li	     16.48196      4.30378     -4.29983         0.019449      0.002653     -0.000633
Li	     16.44840      8.47207     -8.46738         0.028428      0.017602     -0.019461
Li	      8.34759      4.13213     -0.15872         0.011189      0.011245     -0.014909
Li	      8.09582      8.41943     -4.45776         0.029978      0.015280     -0.008253
Li	     16.49081      6.28281     -2.31769        -0.002049     -0.004063     -0.001762
Li	     16.49194     10.44926     -6.48186         0.012734      0.020559     -0.017371
Li	      8.35015      6.10397      1.81898         0.006011      0.009845     -0.019139
Li	      8.09850     10.42184     -2.45337         0.034581      0.003732     -0.012554
Li	     16.45402      8.26475     -0.33495         0.004893      0.000968     -0.004250
Li	     16.48921     12.43099     -4.50306         0.027540      0.019338     -0.019506
Li	      2.07416      2.02656     -0.04765         0.018578     -0.007348      0.010527
Li	      2.12041      6.23360     -4.25607         0.005212      0.009743     -0.007642
Li	     10.44186      4.11463     -2.14104         0.017848     -0.026774      0.006725
Li	     10.44517      8.28638     -6.23979         0.009094     -0.001830      0.007659
Li	      2.07526      4.00806      1.94056         0.013860     -0.007762      0.008285
Li	      2.12305      8.22223     -2.27369        -0.001453      0.009809     -0.006134
Li	     10.45936      6.05815     -0.17195         0.029641     -0.004259      0.015947
Li	     10.40958     10.26510     -4.31434         0.015743      0.004717      0.004668
Li	      2.07033      5.98887      3.92174         0.019125     -0.011270      0.008466
Li	      2.11733     10.20079     -0.28856         0.006188      0.005496     -0.009372
Li	     10.45600      8.06444      1.83090         0.014059     -0.023942      0.016521
Li	     10.42126     12.22521     -2.31151         0.009004     -0.000800      0.015549
Li	      4.17806      2.10459     -2.10204        -0.001244     -0.006385      0.005762
Li	      4.45754      6.41097     -6.41176        -0.022055      0.011577     -0.015200
Li	     12.70452     10.12797      1.71624         0.000664      0.006836     -0.007321
Li	     12.67018     14.30709     -2.43103        -0.015770     -0.003268      0.023239
Li	      4.17927      4.08408     -0.12364         0.003045     -0.008021      0.003678
Li	      4.44727      8.38581     -4.41909        -0.011896      0.013479     -0.017815
Li	     12.67367      6.16967     -2.20188        -0.017669      0.003064      0.003040
Li	     12.67517     10.31961     -6.36335        -0.028163      0.000635     -0.006472
Li	      4.17646      6.06908      1.86043        -0.002335     -0.004051      0.006551
Li	      4.45425     10.36526     -2.44277        -0.019221      0.023573     -0.018036
Li	     12.67239      8.17991     -0.25629        -0.014024     -0.021632      0.017157
Li	     12.70199     12.34030     -4.36833        -0.009906      0.019737     -0.019514
Li	      6.28764      4.08200     -2.10700        -0.008656     -0.018609      0.023887
Li	      6.28655      6.06938     -0.12432        -0.007492     -0.022147      0.016061
Li	      6.28187      8.05160      1.85591        -0.010449     -0.025301      0.017120
Ni	     16.62964      6.17030     -6.16875         0.020150     -0.034856      0.031637
Ni	     16.65470     10.34053    -10.33860         0.025042     -0.035256      0.024533
Ni	      8.41843     10.05539      1.82152        -0.040421     -0.038693      0.047382
Ni	      8.36356      8.30695     -8.30616        -0.039379     -0.015775      0.031260
Ni	     16.63852      8.14812     -4.18565         0.016117     -0.025113      0.034871
Ni	     16.65491     12.32306     -8.35346         0.027587     -0.025995      0.032238
Ni	      8.42960      6.07979     -2.13713        -0.071345     -0.026352      0.040654
Ni	      8.38394     10.28902     -6.30349        -0.077369     -0.036866      0.009880
Ni	     16.64009     10.13239     -2.20203         0.015062     -0.035327      0.028305
Ni	     16.64556     14.30571     -6.37512         0.020337     -0.039117      0.031590
Ni	      8.41608      8.08385     -0.15890        -0.034832     -0.050197      0.033804
Ni	      8.36044     12.27333     -4.33611        -0.043192     -0.023617      0.024787
Ni	      2.04876      4.12974     -2.14784        -0.103248     -0.011188      0.004163
Ni	      2.07533      8.31093     -6.32831        -0.119152     -0.023996      0.019193
Ni	     10.45766      6.16128     -4.17533        -0.078335     -0.018581     -0.037673
Ni	     10.43208     10.33802     -8.36078        -0.041541     -0.008812      0.000700
Ni	      2.05385      6.11109     -0.16545        -0.107766     -0.009634      0.012015
Ni	      2.07118     10.29257     -4.34596        -0.120424     -0.021057      0.027644
Ni	     10.41750      8.16569     -2.21915        -0.032883      0.013999     -0.005066
Ni	     10.46717     12.30301     -6.36502        -0.074075      0.048048      0.022476
Ni	      2.04835      8.09290      1.81687        -0.101485     -0.006930      0.012261
Ni	      2.07071     12.27314     -2.36405        -0.121009     -0.021776      0.021167
Ni	     10.45786     10.14330     -0.23381        -0.084429      0.030515      0.027802
Ni	     10.46602     14.30559     -4.40414        -0.094134     -0.018138     -0.037856
Ni	      4.13223     10.08690      1.80196         0.011241      0.003466     -0.004258
Ni	      4.20755      8.33088     -8.33130         0.021769     -0.009873      0.008496
Ni	     12.54174      6.18888     -6.18019         0.004943     -0.002788      0.003512
Ni	     12.52514     10.35099    -10.34923         0.021507     -0.003488      0.013018
Ni	      4.13658      6.12497     -2.16248         0.012819      0.007291     -0.000979
Ni	      4.20869     10.31170     -6.34803         0.024814     -0.002397      0.009785
Ni	     12.52032      8.17989     -4.20291         0.001721     -0.013230      0.010458
Ni	     12.53398     12.32102     -8.37055        -0.007029     -0.022696      0.012650
Ni	      4.13567      8.10718     -0.18093         0.009528      0.000579     -0.009455
Ni	      4.20466     12.29321     -4.36559         0.015559     -0.010489      0.008211
Ni	     12.51180     10.16142     -2.23490         0.031126     -0.026497     -0.000509
Ni	     12.55380     14.29910     -6.38078         0.015360     -0.004156     -0.008387
Ni	      6.23557      6.14434     -4.16650         0.080724      0.039006     -0.040642
Ni	      6.26029     10.42656     -8.44295         0.055715      0.054426     -0.058195
Ni	     14.57025      8.19834     -6.19894        -0.005159      0.024966     -0.057044
Ni	     14.58889     12.34187    -10.35493        -0.011203      0.024563     -0.054683
Ni	      6.25088      8.12506     -2.18504         0.069906      0.049213     -0.046367
Ni	      6.24173     12.40936     -6.46325         0.088315      0.049394     -0.058324
Ni	     14.58894     10.16374     -4.21794        -0.017017      0.050251     -0.040368
Ni	     14.57146     14.32209     -8.39056         0.010273      0.054074     -0.003097
Ni	      6.23656     10.11107     -0.20389         0.072370      0.041009     -0.038763
Ni	      6.24412     14.39194     -4.48512         0.074667      0.060118     -0.047283
Ni	     14.57455     12.14368     -2.24995         0.010946      0.055252     -0.026005
Ni	     14.57554     16.31841     -6.39046         0.017931      0.006238     -0.040195
O	      4.13099      4.22007     -2.23836         0.102026     -0.126894      0.124917
O	      4.09825      8.41560     -6.43518         0.114684     -0.107349      0.123100
O	     12.30938      6.28649     -4.18958         0.145030     -0.142321      0.082154
O	     12.32428     10.42643     -8.46319         0.115026     -0.138810      0.128790
O	      4.13309      6.20226     -0.25778         0.096016     -0.125850      0.127989
O	      4.09533     10.39686     -4.45120         0.125387     -0.119159      0.111066
O	     12.30576      8.27372     -2.31496         0.109836     -0.122206      0.131632
O	     12.31935     12.30952     -6.48234         0.168085     -0.101923      0.148506
O	      4.13190      8.18188      1.72434         0.102204     -0.117092      0.125476
O	      4.09609     12.37787     -2.46948         0.116059     -0.108456      0.112671
O	     12.31020     10.15124     -0.34389         0.142900     -0.092742      0.136624
O	     12.31722     14.40199     -4.40005         0.182282     -0.135221      0.098429
O	      6.30695     10.18090      1.70364         0.017878     -0.127845      0.138352
O	      6.31409     14.49772     -2.61188         0.005911     -0.138094      0.129704
O	     14.55505      6.32295     -6.32076        -0.014854     -0.105351      0.100125
O	     14.57741     10.47282    -10.46330         0.007011     -0.120944      0.102885
O	      6.30637      6.21451     -2.25675        -0.000268     -0.125727      0.127420
O	      6.31439     10.53639     -6.56882         0.004539     -0.128569      0.130058
O	     14.56351      8.29601     -4.32769         0.030894     -0.106411      0.104036
O	     14.57732     12.45038     -8.48623         0.008257     -0.106964      0.102090
O	      6.30810      8.20128     -0.27657        -0.011326     -0.124572      0.132183
O	      6.31115     12.52050     -4.59202         0.004943     -0.118934      0.126933
O	     14.56537     10.27221     -2.34985         0.020436     -0.103053      0.116626
O	     14.56703     14.44128     -6.51287        -0.010130     -0.087828      0.095105
O	      4.15216      6.03734     -4.05652        -0.069314      0.120570     -0.121844
O	      4.17826     10.24752     -8.26447        -0.082946      0.126218     -0.127204
O	     12.67308      8.21302     -6.11056        -0.105035      0.097217     -0.157029
O	     12.67907     12.26882    -10.28079        -0.110837      0.111743     -0.130202
O	      4.16327      8.02209     -2.07754        -0.055962      0.115417     -0.121092
O	      4.16645     12.22596     -6.28132        -0.080196      0.129372     -0.128262
O	     12.67680     10.09692     -4.14840        -0.120011      0.136182     -0.113287
O	     12.67794     14.23344     -8.40394        -0.126805      0.147459     -0.085474
O	      4.15208     10.00107     -0.09364        -0.065786      0.118337     -0.121484
O	      4.16682     14.20913     -4.29959        -0.083439      0.125280     -0.138033
O	     12.68760     12.05461     -2.26268        -0.109361      0.165712     -0.105409
O	     12.69210     16.32616     -6.29578        -0.141197      0.095560     -0.148992
O	      6.28892      2.02564     -2.02489         0.010502      0.150955     -0.151761
O	      6.28505      6.02074     -6.02003         0.027880      0.152372     -0.153298
O	     14.61267      3.91230     -3.89104         0.003283      0.154165     -0.156245
O	     14.57376      8.05399     -8.05284        -0.013044      0.138257     -0.141051
O	      6.28999      4.00823     -0.03988         0.000153      0.148784     -0.162471
O	      6.28428      7.99647     -4.03966         0.021200      0.151456     -0.157885
O	     14.61272      5.87880     -1.92458        -0.012526      0.150400     -0.161474
O	     14.61611     10.04551     -6.06580        -0.013405      0.147086     -0.142183
O	      6.28306      5.98900      1.93576         0.002640      0.152292     -0.149817
O	      6.28509      9.98141     -2.05677         0.030496      0.146071     -0.147091
O	     14.57080      7.86504      0.06687        -0.002102      0.149939     -0.137905
O	     14.62008     12.01200     -4.09983        -0.010281      0.151368     -0.137922
O	      0.11542      2.12560     -0.14435         0.005119     -0.147994      0.154310
O	      0.14474      6.29601     -4.31205         0.010797     -0.159394      0.164342
O	      8.40018      4.18371     -2.22734        -0.009290     -0.134506      0.125615
O	      8.48988      8.40555     -6.41775        -0.003194     -0.148017      0.145845
O	      0.11779      4.10698      1.84100        -0.000373     -0.153913      0.148643
O	      0.14360      8.28035     -2.32997         0.013257     -0.166496      0.162710
O	      8.42011      6.18492     -0.24311        -0.009504     -0.129021      0.127310
O	      8.44838     10.39239     -4.41754         0.002597     -0.137240      0.141594
O	      0.11218      6.08810      3.82132         0.003052     -0.146206      0.150943
O	      0.13909     10.26040     -0.34843         0.010570     -0.162195      0.158229
O	      8.39484      8.16769      1.72072         0.007601     -0.126728      0.151799
O	      8.45317     12.38467     -2.45788        -0.001875     -0.168159      0.147970
O	      2.02768      4.21616     -0.25253         0.063499     -0.132591      0.128317
O	      2.02588      8.39873     -4.43451         0.057867     -0.134114      0.127312
O	     10.49100      6.12395     -2.30477         0.086870     -0.074202      0.137465
O	     10.48472     10.44471     -6.33211         0.072533     -0.168227      0.107579
O	      2.02701      6.19663      1.72997         0.067518     -0.124968      0.132236
O	      2.01404     10.37776     -2.45065         0.092962     -0.119006      0.125435
O	     10.49477      8.26213     -0.25279         0.048791     -0.124027      0.091264
O	     10.53116     12.42137     -4.48604         0.046003     -0.131794      0.121556
O	      2.02520      2.23435     -2.23316         0.062238     -0.126059      0.132601
O	      2.02020      6.41692     -6.41547         0.081293     -0.126684      0.131991
O	     10.53205     10.21594      1.66278         0.064868     -0.124787      0.102046
O	     10.48500     14.33642     -2.53507         0.036496     -0.126663      0.153001
O	     16.47273      8.08793     -6.10860         0.088732      0.102108     -0.104902
O	     16.47454     12.25887    -10.27282         0.127299      0.100173     -0.101371
O	      8.53856      6.01260     -4.05236        -0.111527      0.116082     -0.118345
O	      8.49267     10.23037     -8.23909        -0.087303      0.096766     -0.087284
O	     16.47872     10.06870     -4.12325         0.107510      0.105006     -0.105470
O	     16.47104     14.24327     -8.28959         0.075874      0.096827     -0.113312
O	      8.50140      7.99866     -2.06765        -0.118968      0.084795     -0.092321
O	      8.53462     12.22234     -6.25698        -0.126763      0.097996     -0.104862
O	     16.47895     12.05375     -2.13950         0.073684      0.103658     -0.102969
O	     16.47577     16.22001     -6.31268         0.063323      0.101206     -0.102213
O	      8.53888     10.01067     -0.08984        -0.113323      0.105962     -0.094994
O	      8.53082     14.19606     -4.31095        -0.114477      0.125624     -0.106193
O	      2.01652      4.03913     -4.03836        -0.049542      0.126478     -0.132632
O	      2.02028      8.22081     -8.21869        -0.030880      0.151280     -0.148010
O	     10.44007      6.09048     -6.07244        -0.077974      0.122281     -0.095061
O	     10.42622     16.18154     -4.46127        -0.074315      0.155025     -0.099681
O	      2.01692      6.02238     -2.05592        -0.050348      0.128532     -0.136959
O	      2.01965     10.20098     -6.23792        -0.025759      0.149709     -0.155605
O	     10.39640      8.03760     -4.17795        -0.067970      0.120395     -0.096671
O	     10.40914     12.29575     -8.24780        -0.056337      0.133154     -0.124114
O	      2.01739      8.00208     -0.07556        -0.056055      0.129669     -0.130025
O	      2.01963     12.18230     -4.25369        -0.030758      0.150984     -0.152086
O	     10.41372     10.20507     -2.10502        -0.074918      0.065829     -0.130877
O	     10.45127     14.20465     -6.30480        -0.074815      0.131350     -0.115490
