# total energy = -881.84628085 eV
 
CRYSTAL
PRIMVEC
0.000519 5.908794 5.912533 
16.949712 4.069348 -4.070538 
-0.046720 8.221664 -8.226352 
PRIMCOORD
184 1
Li	      8.15435      2.29639     -2.16002         0.042647      0.050801      0.001697
Li	      8.41684      6.13492     -6.13515        -0.000299      0.014071      0.016743
Li	      0.13188      5.99182      5.82612         0.005460      0.021397     -0.019705
Li	     16.90108      8.27939     -8.28192        -0.005500      0.016699     -0.015737
Li	      8.41664      8.09334     -4.15527         0.002073      0.029593     -0.027962
Li	      0.13873      2.08455      1.89630         0.009462      0.024492     -0.026274
Li	     16.89995     10.25136     -6.31118         0.003144      0.014177     -0.010422
Li	      8.13306      6.08497      1.62407         0.057788      0.011781     -0.035600
Li	      8.41649     10.07311     -2.19389         0.001850     -0.015870     -0.014739
Li	      0.15734      4.02458      3.82252         0.001455      0.022134     -0.019528
Li	     16.89981     12.21664     -4.34312        -0.001728      0.010338     -0.013634
Li	      2.52210      2.28746     -0.01058         0.047457      0.018913     -0.008013
Li	      2.08634      6.16439     -4.21169         0.015833      0.001494      0.003386
Li	     10.49852      4.05831     -2.03397        -0.031409     -0.031233     -0.003158
Li	     10.52218      8.13714     -6.16529        -0.003589      0.000678     -0.005932
Li	      2.08782      8.14792     -2.23848         0.018367     -0.004196      0.005149
Li	     10.49793      5.97234     -0.11892        -0.029509      0.000411      0.033502
Li	     10.52214     10.10636     -4.19677         0.002943      0.001052      0.002074
Li	      2.58214      5.96328      3.59396         0.024853      0.004237     -0.006335
Li	      2.07066     10.12067     -0.25675         0.013309     -0.005856      0.000625
Li	     10.52167      7.98961      1.85523        -0.005048     -0.010074      0.013321
Li	     10.51909     12.07704     -2.22672        -0.002069      0.001170     -0.002594
Li	      4.25673      6.12240     -6.11709         0.004215     -0.001150     -0.002503
Li	     12.70222      4.09306     -4.08983        -0.011127     -0.001834      0.001403
Li	     12.67458      8.22057     -8.22289        -0.005091      0.008222     -0.007376
Li	      4.25107      8.08162     -4.14341         0.000636      0.006284     -0.002047
Li	     12.69599      6.05646     -2.12028        -0.000429     -0.004277      0.002200
Li	     12.66939     10.19034     -6.25226        -0.005175      0.004803     -0.005847
Li	      4.25321     10.05730     -2.18016         0.004917     -0.001905     -0.000599
Li	     12.69759      8.02753     -0.14966        -0.009541     -0.000767      0.004232
Li	     12.68006     12.16045     -4.28579        -0.012453      0.006317     -0.003393
Li	      6.36293      8.03324     -6.05144        -0.001030     -0.027069      0.015908
Li	     14.86311      6.05044     -4.07869        -0.011490     -0.010736      0.015628
Li	     14.81115     10.20844     -8.24388        -0.004196     -0.017070      0.017794
Li	      6.36624      9.98937     -4.08822         0.003060     -0.009564      0.023993
Li	     14.82852      8.02208     -2.11008        -0.014410     -0.015426      0.015006
Li	     14.81096     12.18231     -6.27429        -0.001925     -0.020307      0.022510
Li	      6.35870     11.96212     -2.11051        -0.003655     -0.017132      0.017958
Li	     14.86341      9.98573     -0.13898        -0.010920     -0.014147      0.010795
Li	     14.81548     14.15083     -4.30285        -0.006762     -0.017943      0.016859
Ni	      0.04035      7.95790      3.86212        -0.058527     -0.040334      0.037182
Ni	     -0.01959      6.17778     -6.18013        -0.027112     -0.051422      0.050988
Ni	      8.43069      9.97940      1.82813        -0.075183     -0.076531     -0.087688
Ni	      8.42109      8.13548     -8.13564        -0.003698     -0.091048      0.047652
Ni	      0.03503      4.02078     -0.07325        -0.065094     -0.033082      0.028948
Ni	     -0.01681      8.15235     -4.21234        -0.030077     -0.042582      0.052087
Ni	      8.39348      6.01832     -2.08311        -0.321834     -0.676532      0.672679
Ni	      8.43380     10.10953     -6.16772         0.018366     -0.042451      0.051804
Ni	      0.03427      5.98371      1.89040        -0.062544     -0.029486      0.032729
Ni	     -0.01530     10.12196     -2.24265        -0.032844     -0.053006      0.046724
Ni	      8.43135      8.01924     -0.13429        -0.083921      0.092439      0.082070
Ni	      8.42704     12.07496     -4.19108         0.007705     -0.064461      0.080188
Ni	      2.07438      4.09454     -2.13229        -0.075177     -0.016772     -0.006207
Ni	      2.13459      8.16034     -6.19656        -0.030743     -0.035461     -0.001943
Ni	     10.58480      6.10919     -4.13830        -0.067921     -0.027220     -0.061933
Ni	     10.52825     10.24293     -8.26831        -0.110078     -0.013018     -0.005874
Ni	      2.09466      6.04481     -0.13578        -0.087237     -0.039771      0.031004
Ni	      2.13263     10.14559     -4.23357        -0.027330      0.016097     -0.008643
Ni	     10.58421      8.07534     -2.17187        -0.068745      0.062105      0.027004
Ni	     10.52408     12.20449     -6.30365        -0.099629      0.010809      0.017901
Ni	      2.07387      8.04149      1.81262        -0.083088      0.002478      0.026749
Ni	      2.14120     12.10877     -2.24777        -0.029884      0.004838      0.021750
Ni	     10.59118     10.05445     -0.20601        -0.076897      0.017709     -0.014942
Ni	     10.52404     14.17735     -4.32908        -0.102541     -0.007472      0.006824
Ni	      4.17339      4.08367     -4.08188         0.103659      0.003953     -0.026015
Ni	      4.26338      8.12579     -8.12007         0.000578     -0.000249     -0.017550
Ni	     12.68786      6.16290     -6.16386         0.003797     -0.004915     -0.011394
Ni	     12.63445     10.26119    -10.26591        -0.007682     -0.003380      0.000203
Ni	      4.17566      6.05034     -2.11057         0.036806     -0.022309      0.025127
Ni	      4.26421     10.10333     -6.14916        -0.017704     -0.005858      0.013353
Ni	     12.68767      8.13138     -4.19461         0.022574      0.015972     -0.005488
Ni	     12.64743     12.22693     -8.29059         0.044426      0.001917      0.002081
Ni	      4.18117      8.01544     -0.13993         0.101992      0.019327     -0.005773
Ni	      4.26644     12.05970     -4.18849        -0.013057     -0.004480      0.002407
Ni	     12.68617     10.10290     -2.22419         0.005577      0.005876     -0.001604
Ni	     12.63468     14.20050     -6.32434        -0.003881     -0.002929      0.001981
Ni	      6.29727      6.11188     -4.14314         0.067141      0.072778     -0.122312
Ni	      6.31371     10.11470     -8.13764         0.035096      0.050057     -0.023486
Ni	     14.77986      8.20672     -6.24101         0.089368      0.043680     -0.053770
Ni	     14.77108     12.29747    -10.33353         0.025812      0.052581     -0.053175
Ni	      6.29799      8.08089     -2.17233         0.067463      0.114774     -0.069986
Ni	      6.31660     12.07276     -6.16204         0.103674      0.028802     -0.046428
Ni	     14.77849     10.17649     -4.26826         0.104311      0.051984     -0.047438
Ni	     14.77009     14.26979     -8.36239         0.029849      0.049792     -0.053304
Ni	      6.29942     10.04833     -0.19896         0.049046      0.121655     -0.116417
Ni	      6.31002     14.05183     -4.19909         0.014196      0.005440     -0.007025
Ni	     14.78097     12.14765     -2.29715         0.085249      0.050581     -0.041898
Ni	     14.76996     16.23821     -6.39172         0.025350      0.058619     -0.048594
O	      3.92281      4.18968     -2.22309         0.178911     -0.125459      0.122542
O	      4.21634      8.20279     -6.23398         0.075896     -0.144804      0.183335
O	     12.72594      6.23503     -4.26957         0.080519     -0.139424      0.150164
O	     12.65499     10.31896     -8.36279         0.076650     -0.138378      0.134929
O	      3.93954      6.15437     -0.24703         0.235722     -0.105632      0.112397
O	      4.21074     10.17618     -4.26043         0.075527     -0.174819      0.145001
O	     12.72509      8.20802     -2.29760         0.073057     -0.147783      0.145195
O	     12.65745     12.29885     -6.38287         0.087231     -0.133404      0.135147
O	      3.92521      8.13123      1.72072         0.194370     -0.120852      0.117519
O	      4.22189     12.13917     -2.28456         0.069755     -0.167859      0.156622
O	     12.71049     10.17380     -0.32546         0.098111     -0.137038      0.130493
O	     12.63398     14.26574     -4.41858         0.090988     -0.125511      0.129506
O	      6.29404     10.14578      1.67002        -0.013306     -0.153316      0.187467
O	      6.33416      8.21914     -8.20806         0.018315     -0.199903      0.156135
O	     14.84717     12.22017     -0.40200         0.002149     -0.133835      0.132831
O	     14.77553     16.29818     -4.48495         0.022857     -0.139556      0.144966
O	      6.28341      6.20925     -2.27143         0.221820     -0.144407      0.139832
O	      6.35012     10.17669     -6.23542        -0.008978     -0.153643      0.157350
O	     14.84084      8.28357     -4.35308        -0.007253     -0.146012      0.140116
O	     14.78413     12.36285     -8.42661         0.019718     -0.144900      0.139952
O	      6.29528      8.17842     -0.29697        -0.007484     -0.186612      0.158258
O	      6.34126     12.14586     -4.27100         0.016258     -0.155337      0.202177
O	     14.83841     10.25999     -2.37472        -0.006856     -0.133695      0.144098
O	     14.77567     14.33297     -6.45464         0.021783     -0.134821      0.145872
O	      4.18931      5.98828     -4.01671        -0.103205      0.130617     -0.145395
O	      4.42207     10.01030     -8.02358        -0.209468      0.122913     -0.124933
O	     12.68735      8.06905     -6.10226        -0.081477      0.132666     -0.130737
O	     12.64325     12.15698    -10.19215        -0.048916      0.144797     -0.139860
O	      4.19112      7.95462     -2.04286        -0.101484      0.151606     -0.140385
O	      4.45762     11.96950     -6.06511        -0.177819      0.117870     -0.120099
O	     12.68744     10.03940     -4.13158        -0.087121      0.127882     -0.128427
O	     12.64301     14.12692     -8.22150        -0.044821      0.147594     -0.141382
O	      4.23844      9.92655     -0.08004        -0.156301      0.118396     -0.119229
O	      4.42123     13.93267     -4.08022        -0.197452      0.137860     -0.135055
O	     12.68480     12.01007     -2.15857        -0.078519      0.126090     -0.129964
O	     12.63121     16.09885     -6.25198        -0.050788      0.140024     -0.144135
O	      6.36052      1.74049     -1.73537         0.021478      0.232711     -0.225468
O	      6.33113     11.94157     -0.12376        -0.027021      0.152006     -0.131513
O	     14.80738      3.99495     -3.99543        -0.001358      0.143924     -0.144262
O	     14.82372      8.12089     -8.12415        -0.010924      0.154906     -0.153647
O	      6.34060      3.70560      0.25014         0.019421      0.266418     -0.249717
O	      6.32460      8.00593     -4.06577        -0.004275      0.136345     -0.143452
O	     14.80443      5.96118     -2.02353        -0.003300      0.140064     -0.143396
O	     14.82599     10.09066     -6.15087        -0.017909      0.152454     -0.161521
O	      6.35260      5.67470      2.21131         0.032378      0.213332     -0.247913
O	      6.33032      9.97419     -2.09206        -0.029936      0.136162     -0.155932
O	     14.79761      7.93454     -0.05022        -0.005401      0.148263     -0.141097
O	     14.82467     12.05959     -4.18138        -0.017787      0.158267     -0.153868
O	     16.92240      6.21036     -4.23626        -0.039826     -0.152268      0.148715
O	     16.90945     10.32696     -8.35581        -0.007414     -0.136723      0.133946
O	      8.54459      4.16827     -2.25313         0.151671     -0.761935      0.053105
O	      8.49431      8.22161     -6.25044         0.018627     -0.173264      0.189069
O	     16.81507      8.18441     -2.27406        -0.029570     -0.157077      0.152083
O	     16.90777     12.29761     -6.38954        -0.012174     -0.128472      0.136642
O	      8.54489      6.18763     -0.23395         0.166359     -0.042706      0.751265
O	      8.49796     10.18754     -4.27851         0.019334     -0.174609      0.169116
O	     16.91072     10.14608     -0.30045        -0.035980     -0.149614      0.150965
O	     16.90911     14.26189     -4.41878        -0.006300     -0.139102      0.137442
O	      8.55414      8.09772      1.74642         0.003913     -0.119540      0.119692
O	      8.48757     12.16004     -2.30692         0.026826     -0.169070      0.166573
O	      2.07129      4.18177     -0.28402         0.071865     -0.183927      0.151041
O	      2.08220      8.24059     -4.28808         0.053779     -0.143633      0.134138
O	     10.62115      6.18531     -2.24845        -0.071619     -0.188912      0.180178
O	     10.50243     10.30923     -6.37384         0.076291     -0.146967      0.139765
O	      2.07098      6.19325      1.72638         0.072523     -0.152468      0.180942
O	      2.08418     10.19880     -2.32505         0.048348     -0.131839      0.137957
O	     10.59819      8.16714     -0.28229         0.072070     -0.145492      0.124936
O	     10.48350     12.28082     -4.40057         0.090847     -0.156812      0.126932
O	      2.07748      8.12602      3.68918         0.081196     -0.152604      0.149467
O	      2.08666     12.16688     -0.34910         0.049228     -0.130878      0.134032
O	     10.59901     10.12842      1.68069         0.070297     -0.125636      0.150770
O	     10.47790      8.34266     -8.34440         0.090215     -0.123991      0.159673
O	      0.13489      3.96829     -2.00320        -0.137018      0.122326     -0.122883
O	     -0.01867      8.07975     -6.11647        -0.005966      0.140864     -0.132838
O	      8.44338      5.98291     -4.00140         0.042517      0.313010     -0.969985
O	      8.24579     10.02277     -8.07305         0.156709      0.151619     -0.151851
O	      0.13879      5.93306     -0.02257        -0.175648      0.125753     -0.124545
O	     -0.01698     10.06150     -4.14877        -0.013960      0.132803     -0.137849
O	      8.44317      7.93774     -2.04589         0.049092      0.970278     -0.303146
O	      8.26730     12.01140     -6.07490         0.093019      0.146079     -0.158611
O	      0.13414      7.91249      1.93972        -0.144456      0.123433     -0.126041
O	     -0.01794     12.02575     -2.17221        -0.008939      0.129722     -0.135043
O	      8.41627      9.93694     -0.08916         0.088183      0.072880     -0.077088
O	      8.23441     13.98399     -4.13104         0.165922      0.144245     -0.139721
O	      2.01545      9.92596      1.89188        -0.054036      0.152332     -0.150105
O	      2.19153      8.10584     -8.09930        -0.115488      0.119627     -0.123485
O	     10.58552      6.04481     -6.04204        -0.044908      0.144680     -0.137991
O	     10.52127     10.15355    -10.15119        -0.036624      0.138519     -0.137603
O	      2.01251      5.96795     -2.01763        -0.079735      0.170819     -0.180094
O	      2.16647     10.02637     -6.13350        -0.062133      0.167216     -0.151024
O	     10.59192      8.00951     -4.07175        -0.063886      0.130090     -0.138159
O	     10.60922     12.11920     -8.18124        -0.074900      0.137662     -0.153601
O	      2.01735      7.93042     -0.06148        -0.050405      0.175907     -0.169507
O	      2.18377     12.04631     -4.11469        -0.101004      0.134636     -0.160823
O	     10.58532      9.97970     -2.10526        -0.047747      0.139267     -0.147518
O	     10.52574     14.08679     -6.21452        -0.034565      0.145604     -0.139377
