# total energy = -881.92650725 eV
 
CRYSTAL
PRIMVEC
0.000026 5.911400 5.911394 
16.948126 4.022860 -4.022862 
-0.066900 8.173411 -8.172897 
PRIMCOORD
184 1
Li	      8.40204     12.06198     -0.24522        -0.001357     -0.002618      0.003384
Li	     16.94600      4.07347     -4.05942        -0.004943      0.021988     -0.024656
Li	     16.89938      8.14620     -8.14187         0.000514      0.019345     -0.022390
Li	      8.40389      8.12747     -4.18543        -0.007376      0.004254     -0.002871
Li	      0.00764      2.02023      1.92126         0.008689      0.025038     -0.023066
Li	     16.89982     10.11264     -6.17084         0.000858      0.022575     -0.023029
Li	      8.40204     10.09905     -2.20775        -0.002235     -0.002932      0.002152
Li	     16.94624      8.00154     -0.13152        -0.005407      0.025906     -0.021007
Li	     16.89928     12.08422     -4.20402         0.001477      0.022800     -0.019917
Li	      2.24840      2.07976     -0.07256         0.022778      0.014608     -0.005390
Li	      2.07875      6.08998     -4.10664         0.013607     -0.008582      0.008064
Li	     10.32838      3.81876     -2.01445        -0.027889     -0.010841      0.007402
Li	     10.50262      8.09985     -6.12997         0.006130      0.002646      0.011517
Li	      2.24758      4.01478      1.86252         0.023587      0.004820     -0.014331
Li	      2.07891      8.04981     -2.14721         0.012612     -0.006771      0.013294
Li	     10.32999      5.95657      0.12094        -0.028196     -0.007020      0.015747
Li	     10.50247     10.07233     -4.15682         0.004052     -0.008930     -0.004876
Li	      2.08090      5.96966      3.88454         0.022225     -0.002882      0.001603
Li	      2.08019     10.02546     -0.17172         0.021007     -0.003860      0.002701
Li	     10.50073     12.04943     -2.19514         0.007363     -0.009350      0.008881
Li	      4.48552      2.22069     -2.05431         0.029621      0.014558     -0.005996
Li	      4.24376      6.11462     -6.11091        -0.002421     -0.003087     -0.011462
Li	     12.56488      9.87157      1.91513        -0.020464     -0.012080      0.010078
Li	     12.66892     14.03549     -2.22309        -0.013575      0.008541     -0.003101
Li	      4.24707      8.07734     -4.13381        -0.008636      0.006388     -0.009149
Li	     12.73263      5.98239     -2.04049        -0.017419      0.000478     -0.002480
Li	     12.66874     10.10019     -6.15736        -0.022176      0.001301     -0.003306
Li	      4.48331      5.99636      1.72330         0.031686      0.006278     -0.015000
Li	      4.24433     10.05274     -2.17158        -0.003409      0.012931      0.003070
Li	     12.56640      7.93666     -0.01920        -0.021972     -0.004703      0.015287
Li	     12.66821     12.07653     -4.18218        -0.014118      0.003365     -0.008983
Li	      6.34581      8.06301     -6.08448        -0.002975      0.003764     -0.003828
Li	     14.81766      5.98966     -4.03052         0.002041     -0.023265      0.028127
Li	     14.79682     10.08967     -8.12096        -0.005595     -0.017836      0.020683
Li	      6.34500     10.02746     -4.12112        -0.000977      0.003397     -0.004189
Li	     14.81683      7.97262     -2.04816         0.002794     -0.025939      0.021621
Li	     14.79630     12.06321     -6.14874        -0.006047     -0.022499      0.022952
Li	      6.34419     11.99862     -2.14391         0.002859     -0.003571      0.004358
Li	     14.80632      9.93136     -0.07872        -0.006527     -0.025585      0.026718
Li	     14.79676     14.03469     -4.18123        -0.003772     -0.023041      0.019623
Ni	     -0.00324      2.02485     -2.02014        -0.041812     -0.048203      0.033695
Ni	     -0.01668      6.12219     -6.11937        -0.012423     -0.059764      0.058279
Ni	      8.37960      9.94158      1.87278        -0.044408      0.070618      0.060644
Ni	      8.41908      8.09640     -8.09073        -0.022284     -0.086544      0.045187
Ni	     -0.01302      3.99692     -0.05443        -0.044697     -0.040774      0.048679
Ni	     -0.01567      8.09206     -4.14986        -0.047690     -0.051905      0.060090
Ni	      8.39058      6.04790     -2.10579        -0.059210     -0.045621      0.060938
Ni	      8.44184     10.05774     -6.11506        -0.047355     -0.089573      0.088319
Ni	     -0.00292      5.96265      1.91774        -0.043511     -0.044447      0.044688
Ni	     -0.01639     10.06184     -2.18002        -0.016273     -0.060660      0.058905
Ni	      8.37981      7.98091     -0.08887        -0.042594     -0.050768     -0.038176
Ni	      8.41889     12.03342     -4.15427        -0.021982     -0.057573      0.089368
Ni	      2.12058      4.04993     -2.07403        -0.023454     -0.000619     -0.011787
Ni	      2.12140      8.13822     -6.16797        -0.015917     -0.015238     -0.017576
Ni	     10.49949      6.06583     -4.09572        -0.060923      0.026043      0.050685
Ni	     10.50734     10.14765     -8.17012        -0.034086     -0.009019      0.029082
Ni	      2.12090      6.01657     -0.10717        -0.024360      0.010162     -0.004738
Ni	      2.12122     10.11057     -4.19584        -0.015360      0.011880      0.015224
Ni	     10.49968      8.03861     -2.12343        -0.061386     -0.054463     -0.029123
Ni	     10.50684     12.11259     -6.20548        -0.031564     -0.027114      0.004388
Ni	      2.12013      7.98990      1.86390        -0.083735     -0.002008      0.010362
Ni	      2.12448     12.07930     -2.22525        -0.000019     -0.003400      0.008511
Ni	     10.52350     10.00269     -0.14825        -0.072449     -0.014406      0.011634
Ni	     10.48813     14.11892     -4.26532        -0.096729      0.010638      0.000871
Ni	      4.23983      9.97804      1.84033         0.034303      0.005296     -0.022692
Ni	      4.24737      8.14914     -8.14484         0.060703     -0.032761     -0.054583
Ni	     12.62570      6.07574     -6.07245         0.017467      0.011183      0.016389
Ni	     12.62715     16.07561     -4.25529         0.013670     -0.000824      0.011769
Ni	      4.25902      6.00705     -2.06456         0.097870     -0.008179      0.008588
Ni	      4.22396     10.12305     -6.18006         0.073723      0.008005     -0.014356
Ni	     12.62285      8.04634     -4.10408        -0.008304      0.008881     -0.001272
Ni	     12.62678     12.13497     -8.19303         0.086171      0.013788     -0.002388
Ni	      4.24047      8.01291     -0.12432         0.029566      0.030139     -0.002088
Ni	      4.24730     12.08768     -4.20607         0.060669      0.052167      0.023830
Ni	     12.62576     10.01483     -2.13322         0.014559     -0.018745     -0.018068
Ni	     12.62681     14.10868     -6.22172         0.013840     -0.009928     -0.001911
Ni	      6.32862      6.11834     -4.15032         0.021127      0.085106     -0.057005
Ni	      6.36803     10.18400     -8.20234         0.044880     -0.056584     -0.060717
Ni	     14.76353      8.09086     -6.12077         0.018343      0.062229     -0.059325
Ni	     14.75048     12.18848    -10.21994         0.042193      0.047329     -0.040433
Ni	      6.32885      8.09325     -2.17562         0.021971      0.039033     -0.095475
Ni	      6.36778     12.14511     -6.24112         0.043339      0.061878      0.047021
Ni	     14.76361     10.06268     -4.14866         0.021186      0.061225     -0.060474
Ni	     14.75061     14.16184     -8.24645         0.042862      0.040321     -0.045463
Ni	      6.30541     10.06845     -0.21419         0.042111      0.100399     -0.097962
Ni	      6.35754     14.07761     -4.22364         0.042196      0.082086     -0.071469
Ni	     14.76275     12.03232     -2.17881         0.048623      0.058392     -0.055112
Ni	     14.76116     16.12785     -6.27443         0.044830      0.051278     -0.046658
O	      4.13163      4.14472     -2.21970         0.098728     -0.143452      0.142974
O	      4.20797      8.22524     -6.23673         0.039908     -0.146568      0.144105
O	     12.59521      6.14684     -4.15571         0.095392     -0.126873      0.118578
O	     12.65950     10.23362     -8.26014         0.077432     -0.141918      0.145050
O	      4.13254      6.16171     -0.20207         0.090852     -0.142901      0.142901
O	      4.20755     10.17959     -4.28296         0.040203     -0.142955      0.155960
O	     12.59517      8.09752     -2.20463         0.096379     -0.110811      0.132097
O	     12.65903     12.20159     -6.29146         0.078614     -0.134543      0.141116
O	      4.12218      8.08587      1.76802         0.094245     -0.122044      0.118085
O	      4.22587     12.17040     -2.31598         0.074497     -0.140257      0.136603
O	     12.62743     10.09142     -0.23758         0.089601     -0.149270      0.147083
O	     12.64879     14.17692     -4.32307         0.100957     -0.155717      0.149617
O	      6.32373     10.16680      1.65584        -0.026113     -0.163219      0.129572
O	      6.33272      8.24262     -8.23041         0.019271     -0.124286      0.195705
O	     14.76746      6.18419     -6.18291         0.014374     -0.133737      0.137990
O	     14.79432     10.28397    -10.27802         0.010602     -0.124958      0.130989
O	      6.46398      6.20174     -2.25911        -0.184407     -0.117685      0.120975
O	      6.34504     10.23132     -6.28842        -0.020529     -0.152764      0.146449
O	     14.75347      8.15363     -4.21138         0.025214     -0.128990      0.126179
O	     14.76819     12.25499     -8.31284         0.047102     -0.129430      0.129743
O	      6.32408      8.19857     -0.31272        -0.028465     -0.127216      0.161882
O	      6.33259     12.17319     -4.30057         0.015679     -0.193933      0.133047
O	     14.76707     10.12503     -2.24163         0.019420     -0.134897      0.132845
O	     14.79412     14.21996     -6.34204         0.009062     -0.126691      0.128286
O	      4.27251      5.97770     -3.96988        -0.109806      0.131444     -0.125371
O	      4.24831     10.00175     -8.06664        -0.085657      0.192225     -0.156091
O	     12.63689      7.97286     -6.00812        -0.045558      0.126008     -0.118303
O	     12.65529     12.06744    -10.09192        -0.047261      0.142338     -0.146436
O	      4.27269      7.91205     -2.03550        -0.110834      0.124814     -0.133708
O	      4.24820     12.00940     -6.05908        -0.085038      0.155135     -0.187989
O	     12.63674      9.95038     -4.03028        -0.043096      0.118008     -0.125715
O	     12.65471     14.03379     -8.12472        -0.047276      0.149527     -0.145349
O	      4.23596      9.92082     -0.06724        -0.128559      0.134020     -0.140519
O	      4.43376     14.01308     -4.15876        -0.228124      0.102779     -0.105641
O	     12.65539     11.92314     -2.06881        -0.053169      0.124603     -0.134652
O	     12.72995     15.99716     -6.14333        -0.075963      0.150905     -0.158430
O	      6.38339      7.72710      4.06217        -0.004597      0.227629     -0.204725
O	      6.30208      6.04406     -6.03727        -0.020143      0.150015     -0.160224
O	     14.82624      3.93223     -3.93179         0.022246      0.147501     -0.137496
O	     14.78017     13.92249     -2.10133         0.004391      0.147002     -0.148118
O	      6.35954      3.85378      0.08859        -0.012740      0.289118     -0.292753
O	      6.32363      8.00491     -4.06241        -0.009185      0.133746     -0.134524
O	     14.81601      5.90722     -1.96541         0.014988      0.132789     -0.138779
O	     14.77079      9.98132     -6.03908         0.018697      0.143664     -0.147095
O	      6.38321      5.79140      2.12610        -0.007844      0.204509     -0.224171
O	      6.30213      9.97956     -2.10166        -0.016914      0.171900     -0.147100
O	     14.82566      7.87318      0.00914         0.024233      0.137369     -0.144422
O	     14.77963     11.95463     -4.06939         0.009730      0.143098     -0.140822
O	     16.93750      6.13100     -4.15868        -0.027999     -0.147064      0.145920
O	     -0.03319      6.20179     -4.22750        -0.001937     -0.140684      0.146102
O	      8.43119      4.22599     -2.21887        -0.000383     -0.241469      0.209751
O	      8.44496      8.17072     -6.20418         0.024562     -0.154115      0.172730
O	     16.93746      8.10078     -2.18829        -0.027619     -0.137844      0.145917
O	     -0.03294      8.16996     -2.25966        -0.002245     -0.143838      0.142977
O	      8.43195      6.16144     -0.28345        -0.001024     -0.212407      0.232204
O	      8.44480     10.14663     -4.22832         0.021429     -0.168044      0.159375
O	     -0.00283      6.04451      3.80951        -0.010171     -0.143057      0.135601
O	     -0.02410     10.14339     -0.28953        -0.008654     -0.146782      0.143295
O	      8.45404      8.09903      1.75518         0.012731     -0.300332      0.281859
O	      8.42383     12.12146     -2.26747         0.010783     -0.138873      0.130627
O	      2.01863      4.12869     -0.18603         0.066097     -0.156760      0.153416
O	      2.09174      8.20271     -4.25959         0.048066     -0.133027      0.125014
O	     10.31232      6.11353     -2.17082         0.249248     -0.107474      0.102147
O	     10.50872     10.20488     -6.26222         0.145757     -0.145227      0.136289
O	      2.09266      6.09101      1.79655         0.050774     -0.147121      0.140791
O	      2.11021     10.17519     -2.29857         0.040148     -0.117892      0.128222
O	     10.50018      8.11586     -0.27031         0.075957     -0.151343      0.189539
O	     10.47560     12.21396     -4.29474         0.104863     -0.128439      0.142261
O	      2.09182      8.05765      3.76279         0.052952     -0.140061      0.148635
O	      2.11043      6.24120     -6.23271         0.043267     -0.123213      0.122288
O	     10.49959      4.21292     -4.17270         0.080091     -0.191115      0.149880
O	     10.47590     14.14822     -2.36029         0.104429     -0.135405      0.133670
O	     16.90218      7.95214     -5.98521        -0.023307      0.130181     -0.128141
O	     -0.02061      8.02898     -6.05648        -0.008649      0.138030     -0.142559
O	      8.41513      5.97200     -4.01116        -0.028430      0.121570     -0.187342
O	      8.42373      9.95930     -7.98553         0.029052      0.165992     -0.123418
O	     16.90217      9.92743     -4.00950        -0.020241      0.128812     -0.127358
O	     -0.02048      9.99892     -4.08699        -0.014654      0.142817     -0.136127
O	      8.41543      7.95328     -2.02912        -0.024288      0.193319     -0.134488
O	      8.42343     11.92789     -6.01733         0.032425      0.129968     -0.161863
O	     -0.02172      7.86908      1.98457        -0.045470      0.135742     -0.136714
O	     -0.00652     11.97091     -2.11699        -0.018460      0.130535     -0.134442
O	      8.40433      9.89517     -0.04046         0.006576      0.139433     -0.153747
O	      8.28433     13.92467     -4.07085         0.180453      0.115727     -0.118545
O	      2.08707      9.89152      1.93099        -0.071182      0.137973     -0.137471
O	      2.15117     13.97885     -2.17370        -0.093036      0.129092     -0.112141
O	     10.53884     11.89998     -0.09193        -0.034610      0.152338     -0.149014
O	     10.61490     10.06971    -10.02133        -0.084871      0.142983     -0.147935
O	      2.09825      5.94932     -2.00645        -0.101288      0.146731     -0.155049
O	      2.12036     10.03387     -6.09178        -0.090461      0.145984     -0.147265
O	     10.52030      7.95638     -4.01386        -0.065360      0.133364     -0.137738
O	     10.62478     12.03984     -8.09775        -0.088636      0.117446     -0.121252
O	      2.08708      7.92285     -0.03780        -0.074173      0.140748     -0.141061
O	      2.15101     12.02738     -4.12477        -0.092591      0.115519     -0.129455
O	     10.53940      9.94628     -2.04626        -0.035227      0.148285     -0.151784
O	     10.61375     13.96358     -6.12726        -0.075324      0.145422     -0.149526
