# total energy = -881.60014658 eV
 
CRYSTAL
PRIMVEC
0.000082 5.913472 5.913724 
17.012345 4.001764 -4.001809 
-0.073954 8.145084 -8.144931 
PRIMCOORD
184 1
Li	      8.45211     12.01113     -0.18426        -0.011442      0.000898      0.003811
Li	     16.95668      4.04754     -4.04642         0.004980      0.006366     -0.008454
Li	     16.94723      8.10256     -8.10119        -0.000799      0.018528     -0.019156
Li	      8.44711      8.08295     -4.13052        -0.011827     -0.000957     -0.006698
Li	     16.95317      6.02603     -2.07624         0.003852      0.012957     -0.016266
Li	     16.94667     10.07446     -6.13336        -0.001732      0.019794     -0.028472
Li	      8.44758     10.04501     -2.16603        -0.013635      0.008303     -0.004907
Li	     16.95370      7.99079     -0.11117         0.003791      0.016611     -0.013806
Li	     16.94689     12.04799     -4.15883        -0.002481      0.029039     -0.020106
Li	      2.03800      2.03017     -0.06047         0.015859     -0.004069      0.005029
Li	      2.08445      6.06826     -4.08673         0.024690      0.010960      0.004196
Li	     10.54418      8.08142     -6.09812         0.003953     -0.018999      0.021138
Li	      2.04980      4.00672      1.90728         0.020167     -0.010884      0.012258
Li	      1.99258      8.03518     -2.12010         0.003042      0.003300     -0.003932
Li	     10.37111      5.85660      0.05830        -0.026930      0.020570     -0.019596
Li	     10.53320     10.04295     -4.12772         0.004148     -0.021696      0.021727
Li	      2.03894      5.97482      3.88404         0.014838     -0.004972      0.004890
Li	      2.08498     10.00162     -0.15279         0.024031     -0.004119     -0.012230
Li	     10.54422     12.01273     -2.16610         0.004297     -0.021251      0.017669
Li	      4.59102      2.15658     -2.15484        -0.007746     -0.016330      0.016570
Li	      4.24751      6.09938     -6.09864         0.004760      0.008639     -0.006961
Li	     12.42458      3.88247     -3.88154        -0.022692      0.005852     -0.005506
Li	     12.70302      8.08954     -8.08877        -0.002935     -0.010043      0.010208
Li	      4.61356      4.13358     -0.17954        -0.008495     -0.001695     -0.000578
Li	      4.24825      8.06932     -4.13875         0.004850      0.014302     -0.006459
Li	     12.57251      5.92892     -2.00472        -0.019080      0.005414     -0.013609
Li	     12.70468     10.06620     -6.10975        -0.008140     -0.012684      0.005665
Li	      4.61328      6.09417      1.78150        -0.009508      0.001354      0.002127
Li	      4.24796     10.05320     -2.15374         0.004539      0.007325     -0.016051
Li	     12.57220      7.92031     -0.01440        -0.018298      0.011939     -0.004445
Li	     12.70437     12.02385     -4.15169        -0.007409     -0.004269      0.014127
Li	      6.38672      8.00770     -6.05195        -0.005235     -0.015540      0.025444
Li	     14.80531      5.95841     -3.99256        -0.007800     -0.015439      0.017465
Li	     14.85446     10.05358     -8.07353        -0.009318     -0.021770      0.015177
Li	      6.38862      9.98384     -4.06870        -0.014017     -0.016612      0.016263
Li	     14.82458      7.94367     -2.02846        -0.017932     -0.017000      0.015929
Li	     14.84217     12.03102     -6.11573        -0.002806     -0.019242      0.019391
Li	      6.38676     11.96671     -2.09236        -0.006092     -0.025912      0.014226
Li	     14.80470      9.90748     -0.04321        -0.008266     -0.017762      0.014965
Li	     14.85460     13.98823     -4.13847        -0.008656     -0.015327      0.021252
Ni	     16.98005      6.02276     -6.02169        -0.044538     -0.048514      0.045738
Ni	      0.01877      6.10095     -6.09976        -0.096642     -0.040655      0.041104
Ni	      8.43324      3.97018     -3.96993        -0.046266      0.099099     -0.082655
Ni	      8.46485      8.04858     -8.04738         0.003796     -0.049634      0.051340
Ni	     16.97830      7.99623     -4.05315        -0.040923     -0.034842      0.051377
Ni	     -0.02316      8.08314     -4.13987        -0.015305     -0.045572      0.043374
Ni	      8.40643      5.95341     -2.03396        -0.005511      0.041043      0.034621
Ni	      8.46250     10.01560     -6.07594        -0.012267     -0.043090      0.056835
Ni	     16.97876      9.96754     -2.08159        -0.042058     -0.049494      0.036214
Ni	     -0.02292     10.05462     -2.16813        -0.016699     -0.042261      0.045868
Ni	      8.40644      7.94851     -0.03873        -0.004095     -0.050357     -0.045197
Ni	      8.46247     11.99063     -4.10069        -0.012435     -0.055637      0.047252
Ni	      2.11561      4.03670     -2.06035        -0.063435      0.006534      0.004916
Ni	      2.12782      8.14357     -6.16861        -0.019279     -0.006616     -0.005566
Ni	     10.53214      6.04811     -4.06918        -0.037377      0.016776      0.016949
Ni	     10.56766     10.16218     -8.17839        -0.118798     -0.020842     -0.006664
Ni	      2.11725      6.01343     -0.09879        -0.046919     -0.001613     -0.002106
Ni	      2.12235     10.11833     -4.20356        -0.016842      0.010907     -0.004990
Ni	     10.54628      8.02938     -2.11452        -0.116821      0.003664     -0.012716
Ni	     10.56501     12.08440     -6.16927        -0.101362     -0.062556      0.062926
Ni	      2.11601      7.97481      1.87832        -0.066202     -0.004110     -0.003339
Ni	      2.12813     12.08350     -2.22828        -0.021152      0.002057      0.001910
Ni	     10.53257      9.98365     -0.13313        -0.032289     -0.013014     -0.011873
Ni	     10.56775     14.09343     -4.24700        -0.116961      0.006975      0.021320
Ni	      4.24598      4.04032     -4.03928         0.047792      0.012903     -0.005035
Ni	      4.28358      8.13751     -8.13601        -0.035816      0.014127     -0.020584
Ni	     12.65442      6.04784     -6.04680         0.029252     -0.008576      0.012076
Ni	     12.70359     10.11843    -10.11713         0.051802      0.023447     -0.022013
Ni	      4.26470      6.01645     -2.08019        -0.004009      0.033570     -0.006189
Ni	      4.27806     10.11829     -6.17743        -0.033380      0.026380      0.002985
Ni	     12.65869      8.02717     -4.08342         0.013581      0.003463      0.010504
Ni	     12.66928     12.09924     -8.15547         0.094211      0.020058     -0.016977
Ni	      4.26495      7.99500     -0.10117        -0.008576      0.001107     -0.036627
Ni	      4.27806     12.09188     -4.20339        -0.033292      0.000413     -0.021262
Ni	     12.65923      9.99816     -2.11223         0.013895     -0.009400     -0.009023
Ni	     12.66938     14.07049     -6.18409         0.094051      0.014692     -0.021105
Ni	      6.33173      6.08593     -4.11676         0.033080      0.060060     -0.067314
Ni	      6.43054     10.07851     -8.10825        -0.054073      0.028331     -0.024924
Ni	     14.80482      8.06366     -6.09284         0.016847      0.052370     -0.048253
Ni	     14.79184     12.14187    -10.16515         0.077290      0.015707     -0.064263
Ni	      6.34285      8.03633     -2.12145        -0.018749      0.108090     -0.113823
Ni	      6.42789     12.05272     -6.13815        -0.040046      0.069730     -0.063942
Ni	     14.80599     10.04096     -4.12618         0.020631      0.047586     -0.052911
Ni	     14.79224     14.12459     -8.20986         0.069890      0.061783     -0.058634
Ni	      6.33164     10.03149     -0.17089         0.029983      0.069141     -0.058480
Ni	      6.43044     14.02263     -4.16369        -0.056111      0.030132     -0.025798
Ni	     14.80496     12.00735     -2.14896         0.016864      0.052288     -0.048521
Ni	     14.79188     16.07993     -6.22688         0.077618      0.061940     -0.016716
O	      4.14289      4.12064     -2.15101         0.090009     -0.150142      0.138755
O	      4.20542      8.20383     -6.23739         0.085151     -0.167546      0.153681
O	     12.64072      6.12874     -4.14374         0.113027     -0.122766      0.118233
O	     12.71218     10.19316     -8.23945         0.063314     -0.124410      0.149472
O	      4.16228      6.11331     -0.19851         0.064513     -0.151414      0.153961
O	      4.20896     10.19709     -4.28228         0.063535     -0.169236      0.167972
O	     12.65296      8.10030     -2.18569         0.070630     -0.126987      0.127350
O	     12.71912     12.16932     -6.25400         0.052781     -0.128365      0.128877
O	      4.14300      8.06568      1.79465         0.092396     -0.139728      0.150481
O	      4.20527     12.15212     -2.28811         0.088208     -0.151715      0.165803
O	     12.64467     10.05911     -0.21423         0.100026     -0.121092      0.127395
O	     12.71212     14.15441     -4.27772         0.065247     -0.150654      0.122664
O	      6.33703      4.21752     -4.21566        -0.033939     -0.159645      0.154824
O	      6.36817      8.17682     -8.17584         0.032021     -0.176889      0.177873
O	     14.80707      6.15526     -6.15396         0.022570     -0.122077      0.121612
O	     14.66684     10.20183    -10.20055         0.177614     -0.098733      0.098186
O	      6.33686      6.18620     -2.23911         0.000925     -0.137820      0.136987
O	      6.36314     10.15200     -6.20959         0.044358     -0.185555      0.161602
O	     14.80812      8.13519     -4.18889         0.015810     -0.126704      0.118285
O	     14.85285     12.22034     -8.27415        -0.038344     -0.126065      0.142476
O	      6.33638      8.15350     -0.27144         0.002396     -0.130909      0.139650
O	      6.36324     12.12406     -4.23745         0.041582     -0.162261      0.186417
O	     14.80869     10.10362     -2.22100         0.015447     -0.118554      0.129053
O	     14.85264     14.18871     -6.30563        -0.036199     -0.140257      0.129069
O	      4.22824      5.94788     -3.97326        -0.089809      0.118454     -0.144534
O	      4.48629     10.04541     -8.07709        -0.136309      0.131330     -0.147404
O	     12.68139      7.95225     -5.98544        -0.064387      0.136134     -0.135236
O	     12.76099     11.99537    -10.03995        -0.106078      0.139498     -0.127740
O	      4.41830      7.95718     -2.04227        -0.165931      0.087912     -0.089056
O	      4.48926     12.03849     -6.12422        -0.134024      0.133681     -0.133920
O	     12.67891      9.93241     -4.01761        -0.060945      0.137431     -0.136326
O	     12.71302     14.00013     -8.08523        -0.074353      0.126247     -0.129819
O	      4.22591      9.88765     -0.03251        -0.080618      0.146368     -0.120567
O	      4.48614     13.99144     -4.13031        -0.136450      0.146826     -0.131598
O	     12.68192     11.90025     -2.03771        -0.064757      0.133537     -0.136042
O	     12.76094     15.95464     -6.08063        -0.105475      0.128825     -0.134629
O	      6.47290      1.78903     -1.78812         0.001688      0.239388     -0.242096
O	      6.32292      6.00704     -6.00540        -0.005169      0.144740     -0.153448
O	     14.89684      3.89736     -3.89618        -0.007093      0.135284     -0.134894
O	     14.82759      7.98178     -7.98065         0.005792      0.137842     -0.137942
O	      6.48954      3.75638      0.17826        -0.007547      0.228464     -0.251885
O	      6.32695      7.96978     -4.00847         0.018831      0.156577     -0.133445
O	     14.88212      5.89198     -1.95008         0.021266      0.142978     -0.134978
O	     14.82535      9.95746     -6.01789         0.005632      0.127600     -0.136774
O	      6.48924      5.73666      2.15843        -0.006779      0.242492     -0.230940
O	      6.32676      9.92296     -2.05493         0.018763      0.138820     -0.153492
O	     14.88213      7.86468      0.02292         0.022670      0.133054     -0.144555
O	     14.82579     11.93268     -4.04276         0.004458      0.135809     -0.128877
O	     16.97749      6.10474     -4.13143        -0.003083     -0.126881      0.128519
O	     -0.03169      6.18633     -4.21916        -0.001840     -0.128615      0.152368
O	      8.49169      4.08692     -2.15848         0.026505     -0.239758      0.272681
O	      8.48761      8.13211     -6.16190         0.021263     -0.145594      0.149218
O	     16.98751      8.07981     -2.16537        -0.005985     -0.131162      0.132899
O	     -0.03234      8.16431     -2.24945        -0.013015     -0.128110      0.128508
O	      8.46237      6.13119     -0.21735         0.021291     -0.214854      0.223580
O	      8.48310     10.10442     -4.18949         0.030633     -0.149777      0.149951
O	     16.97780     10.04579     -0.19009        -0.004080     -0.127606      0.126810
O	     -0.03167     10.13369     -0.27133        -0.001131     -0.150622      0.128976
O	      8.49191      8.07255      1.82742         0.026438     -0.277849      0.240535
O	      8.48753     12.07628     -2.21694         0.021490     -0.148757      0.142954
O	      2.07813      4.11124     -0.16804         0.046204     -0.116479      0.115568
O	      2.10955      8.21344     -4.26394         0.019347     -0.133094      0.125018
O	     10.47953      6.17407     -2.16681         0.110896     -0.170482      0.125793
O	     10.51583     10.18370     -6.26967         0.101979     -0.120331      0.130198
O	      2.07866      6.08216      1.80330         0.044460     -0.115162      0.120244
O	      2.10953     10.17859     -2.29837         0.019004     -0.122720      0.132165
O	     10.48058      8.08103     -0.25941         0.108972     -0.120796      0.174277
O	     10.51588     12.18466     -4.26850         0.099317     -0.129646      0.120796
O	      2.06590      2.12458     -2.12362         0.035244     -0.129284      0.128128
O	      2.09016      6.23560     -6.23434         0.074249     -0.125156      0.129728
O	     10.51237      4.18940     -4.18768         0.092750     -0.163624      0.157868
O	     10.51783      8.26360     -8.26222         0.079472     -0.135265      0.136458
O	     16.96175      7.92773     -5.95405        -0.004783      0.130292     -0.136150
O	     -0.04163      7.99881     -6.04422        -0.010336      0.125251     -0.119889
O	      8.42763      5.89022     -3.94229        -0.020090      0.112728     -0.178115
O	      8.32895      9.93127     -7.96575         0.230167      0.115321     -0.116678
O	     16.96346      9.90228     -3.98780        -0.002078      0.135252     -0.135726
O	     -0.01079      9.99379     -4.07876        -0.038917      0.124139     -0.123109
O	      8.25320      7.93787     -2.02295         0.178904      0.106928     -0.104452
O	      8.33125     11.89721     -5.98228         0.264612      0.112994     -0.114301
O	     16.96207     11.86849     -2.01259        -0.006737      0.135323     -0.133332
O	     -0.04167     11.95901     -2.08367        -0.008505      0.118964     -0.125544
O	      8.42780      9.85601      0.02551        -0.020764      0.184243     -0.123374
O	      8.32841     13.88039     -4.01590         0.234637      0.113961     -0.120896
O	      2.08484      3.95611     -3.95450        -0.066935      0.127314     -0.128855
O	      2.14576      8.07833     -8.07705        -0.043871      0.129536     -0.126444
O	     10.56343      5.97416     -5.97273        -0.063809      0.159443     -0.166964
O	     10.83656     10.05312    -10.05166        -0.203484      0.090747     -0.091167
O	      2.10765      5.96270     -2.00012        -0.075814      0.110351     -0.131329
O	      2.15054     10.05539     -6.11664        -0.076924      0.127979     -0.117595
O	     10.55054      7.94488     -4.00389        -0.064285      0.151135     -0.156032
O	     10.66631     12.01770     -8.02032        -0.089552      0.145934     -0.135014
O	      2.10742      7.91426     -0.04691        -0.075184      0.134624     -0.115231
O	      2.15076     12.03175     -4.14013        -0.077766      0.112589     -0.128898
O	     10.55118      9.91840     -2.02992        -0.064672      0.160123     -0.150674
O	     10.66660     13.93555     -6.10256        -0.091526      0.133520     -0.146060
