# total energy = -880.25800309 eV
 
CRYSTAL
PRIMVEC
0.000177 5.917366 5.916870 
16.947734 4.045071 -4.044342 
-0.046823 8.175072 -8.173891 
PRIMCOORD
184 1
Li	      8.39933     12.06496     -0.23615        -0.030383     -0.001680     -0.029895
Li	      0.06349      0.05803     -0.05440         0.002923      0.020091     -0.019221
Li	     16.90859     14.10113     -2.26783         0.018744      0.017627     -0.010410
Li	      8.24860      4.15493     -0.20626         0.003883      0.001681     -0.004934
Li	      8.40670      8.12774     -4.18538        -0.033107      0.001263      0.011773
Li	     16.88523      6.07685     -2.13393         0.029469      0.022450     -0.022188
Li	     16.90654     10.16488     -6.22063         0.013754      0.014743     -0.012458
Li	      8.39876     10.10505     -2.20394        -0.028609      0.016399      0.003134
Li	      0.06362      4.00197      3.88931         0.008439      0.025925     -0.021892
Li	     16.90686     12.13725     -4.23862         0.009966      0.014233     -0.021312
Li	      2.39455      2.12340     -0.15284         0.012009      0.000878     -0.004678
Li	      2.11316      6.09605     -4.14227         0.010034     -0.001860      0.014181
Li	     10.45834      3.94869     -2.03871        -0.004098     -0.004263      0.026274
Li	     10.50497      8.10992     -6.14702         0.002191      0.010650     -0.001383
Li	      2.40071      4.09529      1.81300         0.011113      0.011963     -0.014514
Li	      2.09496      8.08504     -2.15347         0.012549     -0.012006      0.000938
Li	     10.45480      5.98444     -0.00447         0.006692     -0.029176      0.006380
Li	     10.50168     10.09348     -4.16555         0.005218      0.004184     -0.010418
Li	      2.39194      6.07056      3.80421         0.013111      0.004857     -0.005722
Li	      2.11157     10.05534     -0.18267         0.020617     -0.009964      0.011538
Li	     10.36191      7.86060      2.00440        -0.057203     -0.016669      0.012737
Li	     10.50481     12.06264     -2.19624        -0.003076     -0.002690     -0.004244
Li	      4.27037     11.99684     -0.18248         0.003191     -0.011900      0.007010
Li	     12.65687      9.94917      1.88480         0.005302      0.007232     -0.005776
Li	     12.67337     14.06987     -2.24389         0.001056      0.001737      0.003567
Li	      4.27905      8.05684     -4.11414        -0.000698     -0.006171      0.010402
Li	     12.78586      6.02052     -2.07578        -0.016062      0.007494     -0.003772
Li	     12.65570     10.13121     -6.18842        -0.005699     -0.000290     -0.002713
Li	      4.26528     10.04722     -2.13126         0.004760     -0.010453      0.017103
Li	     12.65612      7.97874     -0.08417         0.006264      0.003289     -0.004887
Li	     12.66839     12.11177     -4.20537        -0.006503     -0.000419     -0.002482
Li	      6.35379      8.06526     -6.08287        -0.011542     -0.034542      0.041747
Li	     14.83688      6.01437     -4.06308         0.001359     -0.013161      0.024565
Li	     14.80660     10.13127     -8.15520         0.005553     -0.019188      0.025847
Li	      6.35295     10.02854     -4.12026        -0.010418     -0.040619      0.040349
Li	     14.83906      8.01117     -2.07158         0.002897     -0.014858      0.008460
Li	     14.80836     12.10366     -6.18610         0.001474     -0.022938      0.016845
Li	      6.34838     12.01868     -2.15114        -0.002646     -0.036835      0.030742
Li	     14.83522      9.95841     -0.09323         0.001130     -0.016213      0.010606
Li	     14.80860     14.07075     -4.20532         0.007888     -0.021258      0.018096
Ni	      0.00513      2.02299     -2.02227        -0.063879     -0.050934      0.053900
Ni	      0.00470      6.12752     -6.12166        -0.023083     -0.043796      0.053894
Ni	      8.38021      4.04750     -4.03767        -0.567522     -0.834338      0.730185
Ni	      8.42265      8.11956     -8.11472        -0.044115     -0.039471      0.080979
Ni	      0.02327      4.00445     -0.06228        -0.088891     -0.026565      0.053050
Ni	      0.00353      8.10499     -4.15901        -0.011707     -0.049972      0.050062
Ni	      8.42435      6.06600     -2.11811        -0.193414      0.109746     -0.063500
Ni	      8.44006     10.07688     -6.13089        -0.113531     -0.054775      0.068885
Ni	      0.02136      5.97726      1.91579        -0.082905     -0.063307      0.027492
Ni	      0.00416     10.07099     -2.18310        -0.023345     -0.054794      0.042314
Ni	      8.37776      7.98363     -0.09596        -0.592726     -0.722421      0.791746
Ni	      8.42244     12.06131     -4.17406        -0.051996     -0.093589      0.039002
Ni	      2.12630      4.04713     -2.07898        -0.000791     -0.015789     -0.023365
Ni	      2.16003      8.12591     -6.15518        -0.026999      0.009294      0.013249
Ni	     10.53524      6.06983     -4.10681        -0.039505      0.048791      0.060616
Ni	     10.50938     10.16948     -8.19865        -0.043226      0.012599      0.002685
Ni	      2.10261      6.03307     -0.11272        -0.047741     -0.013721      0.010882
Ni	      2.16018     10.10151     -4.17982        -0.026409     -0.006098     -0.010370
Ni	     10.53388      8.05505     -2.12376        -0.064990     -0.059043     -0.061870
Ni	     10.50954     12.14543     -6.22321        -0.043439     -0.009495     -0.016092
Ni	      2.13526      7.99293      1.87082        -0.010925      0.035326     -0.001007
Ni	      2.14307     12.06220     -2.19852        -0.020455     -0.020499      0.013796
Ni	     10.54677     10.01923     -0.15543        -0.040474      0.006576      0.004355
Ni	     10.51275     14.11876     -4.25474        -0.050401      0.004399      0.001521
Ni	      4.26023      4.05375     -4.05053        -0.028533      0.034781      0.002947
Ni	      4.24694     14.03142     -2.19982         0.028359     -0.032040      0.024510
Ni	     12.65856      6.09954     -6.09603         0.036934      0.001417      0.006274
Ni	     12.65437     10.18570    -10.18232         0.062676      0.013429     -0.000874
Ni	      4.20697      6.00122     -2.05867         0.160885      0.079972     -0.019818
Ni	      4.25878     10.09236     -6.14665        -0.031786     -0.038303      0.051181
Ni	     12.65051      8.06783     -4.12256         0.035145      0.020671      0.005522
Ni	     12.63673     12.16579     -8.21880         0.030244      0.009238     -0.001480
Ni	      4.23350      7.99318     -0.09733         0.008607     -0.023575     -0.064621
Ni	      4.24731     12.06264     -4.16766         0.031621     -0.033545      0.016698
Ni	     12.65466     10.04246     -2.15296         0.043807     -0.017444     -0.018985
Ni	     12.65392     14.12943     -6.23876         0.068189     -0.004254     -0.014303
Ni	      6.33512      6.11460     -4.13952        -0.048750     -0.012840     -0.077976
Ni	      6.27749     10.17837     -8.23100         0.017067      0.065662      0.050448
Ni	     14.78800      8.12970     -6.15177         0.053924      0.057416     -0.051425
Ni	     14.77684     12.22021    -10.24712         0.043577      0.058543     -0.049178
Ni	      6.33204      8.08634     -2.16329        -0.027987      0.086892     -0.113413
Ni	      6.27757     12.17613     -6.23211         0.026878     -0.050032     -0.055124
Ni	     14.75128     10.10596     -4.18844         0.154351      0.050507     -0.053047
Ni	     14.77724     14.19490     -8.27337         0.050982      0.049560     -0.058972
Ni	      6.30814     10.06502     -0.20553         0.007918      0.087755      0.032998
Ni	      6.31479     14.16247     -4.29897        -0.005469     -0.053236      0.043795
Ni	     14.78811     12.06846     -2.20731         0.041458      0.053822     -0.061164
Ni	     14.77869     16.16307     -6.29882         0.065700      0.060294     -0.058224
O	      4.08608      4.16039     -2.19663         0.075480     -0.150178      0.210853
O	      4.25004      8.20320     -6.21889         0.079756     -0.124469      0.118640
O	     12.65157      6.16783     -4.17549         0.071941     -0.119266      0.100877
O	     12.67628     10.26569     -8.28662         0.066273     -0.123053      0.120018
O	      3.95804      6.11146     -0.18880         0.199385     -0.115295      0.113054
O	      4.25005     10.16500     -4.25695         0.077461     -0.119095      0.117830
O	     12.64581      8.12554     -2.22370         0.102002     -0.105519      0.111882
O	     12.67473     12.23231     -6.31819         0.071968     -0.114427      0.120626
O	      4.10199      8.12427      1.73958         0.011077     -0.222901      0.187161
O	      4.23401     12.13454     -2.27140         0.081344     -0.130273      0.139652
O	     12.67899     10.12327     -0.25866         0.082387     -0.122894      0.131593
O	     12.68922     14.19489     -4.33184         0.053264     -0.136647      0.128477
O	      6.32130      4.24189     -4.23775         0.292712      0.058967     -0.048249
O	      6.31549     14.18721     -2.38003         0.047809     -0.169436      0.123803
O	     14.79596      6.22366     -6.21480         0.006526     -0.127963      0.115132
O	     14.80884     10.31798    -10.30882        -0.019746     -0.132099      0.127047
O	      6.48908      6.19188     -2.24179        -0.134196     -0.138246      0.116225
O	      6.14969     10.19201     -6.24566         0.191898     -0.114647      0.101849
O	     14.81733      8.21053     -4.24630        -0.019687     -0.147225      0.122467
O	     14.80828     12.29169     -8.34480        -0.021060     -0.125001      0.128628
O	      6.31409      8.19025     -0.30084         0.309131     -0.072752      0.078097
O	      6.31262     12.24021     -4.32189         0.054676     -0.108782      0.164191
O	     14.81722     10.15916     -2.29282        -0.012171     -0.101327      0.142916
O	     14.80926     14.25739     -6.37128        -0.024151     -0.124228      0.127471
O	      4.26164      5.96641     -3.95627        -0.071020      0.142213     -0.142698
O	      4.24667      9.98190     -7.99405        -0.094428      0.143742     -0.151783
O	     12.67437      7.99817     -6.02365        -0.083941      0.121347     -0.106155
O	     12.65946     12.10120    -10.11812        -0.066749      0.132377     -0.127540
O	      4.27481      7.89927     -2.00583        -0.150848      0.135084     -0.131671
O	      4.24765     11.93914     -6.03550        -0.099883      0.155698     -0.142815
O	     12.67161      9.97407     -4.05273        -0.090081      0.102466     -0.133972
O	     12.66026     14.06465     -8.15308        -0.070527      0.140149     -0.120913
O	      4.22842      9.91658     -0.04707        -0.120029      0.119085     -0.158228
O	      4.24801     13.92760     -4.06577        -0.093641      0.149056     -0.147039
O	     12.68644     11.94697     -2.09137        -0.076505      0.120721     -0.111900
O	     12.67787     16.02656     -6.16099        -0.052470      0.116455     -0.122000
O	      6.33800      7.79886      3.99035        -0.010055      0.276133     -0.251761
O	      6.31188      6.03924     -6.03309         0.001432      0.162200     -0.143984
O	     14.82373      9.87576      1.95904        -0.005705      0.133227     -0.136292
O	     14.80165      8.04252     -8.03900        -0.003837      0.136971     -0.144106
O	      6.36427      3.82069      0.12451         0.034575      0.184958     -0.194794
O	      6.33190      7.99780     -4.04996        -0.007084      0.171698     -0.147431
O	     14.83011      5.94170     -1.99388        -0.000775      0.116902     -0.119054
O	     14.80565     10.02188     -6.06945        -0.017766      0.120607     -0.157319
O	      6.33467      5.86953      2.06252        -0.013045      0.251605     -0.265397
O	      6.30767      9.97875     -2.09491        -0.000103      0.148513     -0.170269
O	     14.82466      7.90550     -0.01549         0.000331      0.133146     -0.124973
O	     14.80985     11.98455     -4.10069        -0.015505      0.159111     -0.123501
O	     16.93514      6.15872     -4.17602        -0.038240     -0.148341      0.123146
O	     -0.01445      6.20949     -4.23226        -0.006732     -0.122378      0.131143
O	      8.51002      4.24195     -2.17571         0.161318      0.001972      0.593218
O	      8.43139      8.19414     -6.22447         0.019438     -0.132847      0.146350
O	      0.00684      4.09235      1.82024        -0.018581     -0.142629      0.147765
O	     -0.01873      8.18400     -2.26803        -0.005694     -0.132937      0.137263
O	      8.51111      6.12048     -0.29103         0.133088     -0.553291     -0.035686
O	      8.43016     10.17084     -4.24809         0.023486     -0.142308      0.132572
O	     16.92665     10.09961     -0.23651        -0.031708     -0.136227      0.142977
O	     -0.02381     10.14712     -0.28191        -0.013816     -0.119616      0.113827
O	      8.47260      8.13238      1.73417         0.491151     -0.435541      0.442659
O	      8.43909     12.14205     -2.27963         0.018494     -0.150957      0.153276
O	      2.05258      4.15202     -0.20046         0.074631     -0.136563      0.150900
O	      2.13477      8.20673     -4.25880         0.035976     -0.143732      0.132089
O	     10.35519      6.13851     -2.18400         0.253098     -0.062633      0.045145
O	     10.52896     10.23710     -6.28991         0.071824     -0.129568      0.119897
O	      2.05411      6.11076      1.76780         0.083801     -0.152655      0.137398
O	      2.11373     10.15804     -2.26757         0.045463     -0.121931      0.118690
O	     10.54924      8.13042     -0.23904         0.027306     -0.158790      0.169236
O	     10.51507     12.20872     -4.32381         0.085992     -0.115419      0.128822
O	      2.03083      8.06641      3.75931         0.071994     -0.167030      0.170398
O	      2.11294      6.21495     -6.21269         0.052942     -0.120916      0.137748
O	     10.53809      4.18396     -4.17839         0.105999     -0.135009      0.126557
O	     10.51885      8.27052     -8.26271         0.080146     -0.135178      0.124092
O	      0.00412      3.93609     -1.96726        -0.044844      0.126902     -0.114760
O	      0.02416      8.05007     -6.06444        -0.042482      0.111347     -0.128001
O	      8.43210      5.97552     -4.01827         0.089927      0.852282     -0.217521
O	      8.37237     10.02218     -7.99753         0.047629      0.116362     -0.142823
O	      0.14143      5.93629     -0.01774        -0.207385      0.094168     -0.104882
O	      0.02573     10.01417     -4.10888        -0.054007      0.121228     -0.108421
O	      8.41743      7.96723     -2.03001         0.149597      0.208294     -0.829471
O	      8.37097     11.94395     -6.07579         0.045202      0.138892     -0.125963
O	     -0.00769      7.87786      1.98344        -0.000924      0.133867     -0.127274
O	      0.00580     11.97226     -2.10816        -0.032563      0.138674     -0.137715
O	      8.42598      9.90646     -0.03734         0.112502      1.007616     -1.048627
O	      8.40706     13.92654     -4.06391         0.042405      0.162748     -0.161295
O	      2.09340      3.97168     -3.96523        -0.185051      0.129463     -0.151807
O	      2.15497      8.04074     -8.03838        -0.073145      0.135009     -0.146303
O	     10.57497     11.91811     -0.09779        -0.067052      0.133406     -0.099449
O	     10.62707     16.00249     -4.16843        -0.079349      0.128870     -0.118916
O	      2.07341      5.96214     -1.99192        -0.046659      0.138516     -0.133329
O	      2.33710     10.04718     -6.10176        -0.124278      0.096854     -0.103136
O	     10.54827      7.97038     -4.02488        -0.034137      0.089543     -0.114946
O	     10.54245     12.06165     -8.11583        -0.031763      0.102071     -0.099918
O	      2.06972      7.90789     -0.03415        -0.068400      0.148059     -0.135717
O	      2.16120     11.98526     -4.09565        -0.083946      0.145688     -0.119628
O	     10.56901      9.95741     -2.05749        -0.060757      0.123252     -0.112352
O	     10.62581     14.03210     -6.13789        -0.073191      0.132353     -0.129445
