# total energy = -890.40457030 eV
 
CRYSTAL
PRIMVEC
-0.002116 5.913926 5.900774 
16.849566 4.066352 -4.063753 
-0.058588 8.248988 -8.230152 
PRIMCOORD
185 1
Li	      8.48638      2.12462     -2.06918         0.002160      0.008662     -0.009656
Li	      0.03903      4.21489     -4.15504        -0.003037      0.015189     -0.010831
Li	      8.48343      4.04458     -0.14748         0.004926      0.010723     -0.013378
Li	      8.34723      8.13243     -4.30362         0.003882      0.006247     -0.023828
Li	     16.83774      6.07763     -2.22653        -0.000787      0.020556     -0.021608
Li	      0.02953      6.13701     -2.24351         0.010751      0.020677     -0.011857
Li	      8.44850      5.99994      1.84874        -0.003281      0.011874     -0.013054
Li	      8.34948     10.23485     -2.20540         0.001462      0.028244     -0.003428
Li	      0.06691      4.23503      3.99963        -0.020289      0.009091     -0.023476
Li	     -0.00155      8.11386     -0.23912         0.005284      0.002099     -0.013934
Li	      1.98596      1.82574     -0.19659        -0.006134      0.010020     -0.002068
Li	     10.41437      8.15735     -6.19219        -0.012726      0.000531      0.000044
Li	      2.04090      4.08946      1.97930        -0.005127      0.007735     -0.000387
Li	      2.09661      8.02190     -2.24863         0.005006     -0.013994      0.005115
Li	     10.54508      5.94184     -0.16808         0.010172     -0.011899      0.003677
Li	     10.44522     10.16080     -4.23209        -0.000301      0.006156     -0.000495
Li	      2.14448     10.24959     -0.06294         0.013179     -0.011491     -0.000328
Li	     10.60270      8.16881      1.99881         0.009274     -0.003446      0.002970
Li	     10.41122     12.12123     -2.23982        -0.007268      0.001595      0.003605
Li	      4.12270      7.90293      3.86624        -0.002183      0.005574     -0.007604
Li	     12.58849     14.12184     -2.29567        -0.000791      0.011557     -0.010885
Li	      4.16752      4.02664     -0.07231        -0.010941      0.005960     -0.004773
Li	      4.13027      7.90693     -4.28465         0.009623      0.009907     -0.000854
Li	     12.57079      5.81274     -2.22473        -0.006066     -0.010957     -0.009253
Li	     12.60390     10.20808     -6.23136        -0.002321      0.007411     -0.007321
Li	      4.14928      5.99859      1.91505        -0.012398     -0.001538     -0.004452
Li	      4.18103     10.15217     -2.12445        -0.001927      0.008511      0.003411
Li	     12.62600      8.05628     -0.06085         0.000110      0.007166      0.003849
Li	     12.61087     12.16165     -4.29396        -0.002216      0.000158     -0.003853
Li	      6.29997      3.99040     -2.04255        -0.014132     -0.016723      0.026949
Li	      6.28872      8.03792     -6.12734         0.004100     -0.040113      0.019908
Li	     14.75728      5.94261     -4.05094         0.005768     -0.044237      0.024649
Li	     14.71034     10.15730     -8.19623        -0.019389     -0.004942      0.016221
Li	      6.36202      5.98414     -0.06727        -0.016129     -0.021841      0.010259
Li	      6.33845     10.07835     -4.17567         0.016119     -0.005578      0.023958
Li	     14.75184      8.00380     -2.08656         0.001726     -0.006282      0.014463
Li	     14.75838     12.15933     -6.24237        -0.000231     -0.007896      0.001278
Li	      6.32256      7.94842      1.90687         0.000881     -0.032354      0.012460
Li	      6.28604     12.06990     -2.10346        -0.008237     -0.019681      0.034528
Li	     14.68223      9.98921     -0.02047         0.013119     -0.033136      0.038554
Li	     14.73964     14.12011     -4.24823        -0.011118     -0.020774      0.003233
Ni	      0.01688      7.95119      3.86044        -0.108653     -0.020267      0.069699
Ni	     -0.03379     12.09914     -0.28433        -0.018639     -0.085530      0.072030
Ni	      8.40713     10.01412      1.79680        -0.004233     -0.085605      0.083292
Ni	      8.39525      8.19952     -8.17335        -0.105719     -0.052438      0.052732
Ni	     -0.00630      4.03851     -0.08870        -0.046343      0.013512      0.064527
Ni	      0.02267      8.11141     -4.19088        -0.051600     -0.019334      0.104851
Ni	      8.44599      6.02977     -2.10251        -0.045684     -0.039295      0.082463
Ni	      8.37115     10.19455     -6.22617        -0.029844     -0.007823      0.048039
Ni	     16.82172     10.08042     -2.18296        -0.017240     -0.066351     -0.025357
Ni	      0.02425     10.09513     -2.21806        -0.074031     -0.103316      0.022391
Ni	      8.45890      8.00035     -0.12975        -0.067637     -0.099279      0.053430
Ni	      8.36881     12.15477     -4.26437        -0.025078     -0.050363      0.013485
Ni	      2.09057      4.08980     -2.10596        -0.016021      0.035643     -0.006996
Ni	      2.09431      8.18471     -6.19533        -0.018968     -0.038963     -0.003698
Ni	     10.52283      6.11726     -4.13547        -0.015848     -0.038313     -0.033430
Ni	     10.49644     10.22376     -8.23641        -0.009255      0.008015     -0.020799
Ni	      2.08478      6.04849     -0.13499        -0.014382     -0.007893      0.003671
Ni	      2.07037     10.16796     -4.24208        -0.003477     -0.008057      0.008115
Ni	     10.52376      8.10200     -2.17371        -0.016902      0.016831     -0.000807
Ni	     10.49861     12.18852     -6.25741        -0.017094     -0.011153      0.019996
Ni	      2.09305      7.99966      1.84344        -0.033177     -0.037986      0.011704
Ni	      2.05956     12.15015     -2.28783         0.003371      0.039326      0.002584
Ni	     10.50922     10.06609     -0.20806         0.013486      0.036144      0.008027
Ni	     10.49738     14.15130     -4.29564        -0.020372     -0.011654      0.003185
Ni	      4.15441     10.00807      1.81069         0.114549      0.007439     -0.018055
Ni	      4.16033      8.23759     -8.20418         0.023444      0.005901     -0.011833
Ni	     12.60469      6.15514     -6.13512         0.028130     -0.002757      0.004132
Ni	     12.56006     16.16514     -4.33250         0.103953      0.017795     -0.023605
Ni	      4.18283      6.06218     -2.12690         0.014584      0.006172      0.047619
Ni	      4.09868     10.23614     -6.26326         0.049919      0.051950      0.023455
Ni	     12.59239      8.14631     -4.18679         0.040792      0.036795      0.001793
Ni	     12.59119     12.21727     -8.26858         0.024572      0.010993      0.017295
Ni	      4.17420      8.02953     -0.15609         0.027676     -0.058932      0.001621
Ni	      4.09452     12.21783     -4.29331         0.052009     -0.011354     -0.047136
Ni	     12.58769     10.12110     -2.22962         0.031241      0.004725     -0.039170
Ni	     12.58078     14.18629     -6.30287         0.036505     -0.020314     -0.008304
Ni	      6.30423      6.11954     -4.14675         0.052456      0.036190     -0.061976
Ni	      6.21550     10.26648     -8.26395         0.038932      0.039037     -0.044326
Ni	     14.68766      8.18626     -6.20042         0.042834      0.044634     -0.050104
Ni	     14.71910     12.28317    -10.30041         0.074498      0.039774     -0.052674
Ni	      6.27068      8.12870     -2.20828         0.040071      0.047532     -0.039295
Ni	      6.23138     12.26250     -6.33159         0.017645      0.061712     -0.059950
Ni	     14.70104     10.18235     -4.26837         0.075333      0.066883     -0.066522
Ni	     14.64368     14.30076     -8.37030         0.104234      0.045662     -0.034775
Ni	      6.29079     10.06816     -0.20896         0.004783      0.046552     -0.042327
Ni	      6.23205     14.19858     -4.33966         0.077782      0.049498     -0.032078
Ni	     14.68413     12.12717     -2.27330         0.035903      0.053848     -0.037589
Ni	     14.70135     16.23368     -6.36471         0.019870      0.053561     -0.050077
O	      4.21153      4.16271     -2.20196         0.059664     -0.142167      0.152859
O	      4.16709      8.37266     -6.33010         0.076642     -0.159380      0.147508
O	     12.62858      6.27265     -4.26453         0.061754     -0.140928      0.137753
O	     12.62111     10.31069     -8.34077         0.070342     -0.146080      0.141388
O	      4.14350      6.13006     -0.22035         0.147472     -0.115963      0.120561
O	      3.96727     10.28931     -4.33333         0.111932     -0.089183      0.087667
O	     12.60657      8.23002     -2.29203         0.052455     -0.127684      0.122030
O	     12.60579     12.29189     -6.36843         0.065605     -0.132755      0.138958
O	      4.20116      8.10681      1.74734         0.071043     -0.144787      0.143680
O	      4.16552     12.28537     -2.43213         0.067345     -0.145774      0.148048
O	     12.62048     10.19928     -0.35571         0.060617     -0.137224      0.135727
O	     12.61029     14.26443     -4.39342         0.083575     -0.133202      0.148693
O	      6.49050     10.03960      1.71401        -0.187686     -0.086135      0.130177
O	      6.08147      8.33674     -8.26952         0.155425     -0.118389      0.106848
O	     14.50342      6.25265     -6.23035         0.168130     -0.093725      0.088522
O	     14.89468     16.21982     -4.43838        -0.171314     -0.075940      0.126808
O	      6.31016      6.22391     -2.25646         0.017605     -0.116977      0.158434
O	      6.20459     10.36937     -6.36350         0.027657     -0.125499      0.114902
O	     14.70124      8.28624     -4.31459         0.003326     -0.115034      0.128376
O	     14.75632     12.40981     -8.41202        -0.008232     -0.128443      0.153182
O	      6.29901      8.15934     -0.30355         0.039159     -0.138594      0.115017
O	      6.22563     12.31246     -4.43200         0.014203     -0.117750      0.117020
O	     14.68972     10.24381     -2.38278         0.007848     -0.129082      0.118190
O	     14.74510     14.33069     -6.47660        -0.011816     -0.134253      0.126053
O	      4.32622      5.95498     -3.98563        -0.083348      0.153231     -0.141379
O	      4.11307     10.12024     -8.16825        -0.075655      0.137347     -0.152127
O	     12.57472      8.03957     -6.08129        -0.066673      0.124496     -0.163903
O	     12.72699     12.11266    -10.12271        -0.077913      0.152344     -0.140460
O	      4.18183      7.97038     -2.06492        -0.051514      0.146210     -0.149822
O	      4.09354     12.13209     -6.19030        -0.064366      0.138263     -0.140255
O	     12.59026     10.05248     -4.13592        -0.086854      0.127018     -0.122139
O	     12.58579     14.13083     -8.21861        -0.082163      0.148135     -0.151299
O	      4.21164      9.89580     -0.06687        -0.072281      0.139455     -0.150374
O	      4.21079     14.10464     -4.18230        -0.084436      0.166254     -0.145521
O	     12.56853     12.01696     -2.11925        -0.063353      0.154279     -0.132601
O	     12.61843     16.05040     -6.21113        -0.078449      0.140029     -0.155648
O	      6.30235      7.81895      3.98412         0.016420      0.146965     -0.131082
O	      6.28668      6.00187     -5.98179         0.004272      0.170336     -0.184634
O	     14.74602      3.91795     -3.90644         0.011353      0.162495     -0.175137
O	     14.68684     13.99911     -2.17603         0.008841      0.155539     -0.150232
O	      6.29568      3.91164      0.00933         0.002869      0.129307     -0.137265
O	      6.26243      8.07358     -4.09090         0.018164      0.115841     -0.137332
O	     14.75288      5.96583     -2.01520        -0.005003      0.129837     -0.153586
O	     14.72109     10.08636     -6.14893        -0.007029      0.127000     -0.160704
O	      6.31158      5.89676      1.96736         0.005281      0.139010     -0.113980
O	      6.25752     10.02443     -2.11741         0.007542      0.122639     -0.138710
O	     14.73085      7.93304     -0.03376        -0.016019      0.140549     -0.156491
O	     14.72008     12.07068     -4.17856        -0.004085      0.159276     -0.121123
O	     16.80912      6.24514     -4.23100        -0.005823     -0.162277      0.151143
O	     16.70783     10.31408     -8.38540        -0.010620     -0.181924      0.162747
O	      8.31452      4.16275     -2.23715        -0.018313     -0.173042      0.156421
O	      8.34782      8.33874     -6.30376         0.000306     -0.150210      0.148296
O	     16.81913      8.18214     -2.25495         0.007591     -0.156526      0.150778
O	     -0.00251      8.20763     -2.30186         0.023317     -0.143967      0.146288
O	      8.44177      6.10644     -0.20965         0.019889     -0.137510      0.139781
O	      8.36917     10.25585     -4.32625         0.016930     -0.136366      0.133756
O	     16.65753     10.18570     -0.34854        -0.025549     -0.182870      0.189193
O	     -0.01459     10.22046     -0.32914        -0.005881     -0.143492      0.160349
O	      8.45296      8.13499      1.75700        -0.008706     -0.150597      0.152756
O	      8.34574     12.24024     -2.40712         0.000881     -0.149346      0.156961
O	      2.07816      4.14628     -0.20457         0.087777     -0.148394      0.124459
O	      2.10583      8.30392     -4.32353         0.094915     -0.123259      0.181427
O	     10.52992      6.23419     -2.25448         0.071994     -0.146396      0.159120
O	     10.48748     10.28314     -6.34144         0.070148     -0.134336      0.145184
O	      2.06837      6.11938      1.73007         0.076386     -0.143966      0.159659
O	      2.10606     10.23434     -2.36405         0.098777     -0.153291      0.104133
O	     10.54270      8.15778     -0.26504         0.071790     -0.124373      0.115642
O	     10.48698     12.25950     -4.35858         0.063792     -0.138982      0.136711
O	      2.07204      2.22307     -2.16520         0.095031     -0.169623      0.138287
O	      1.86494     12.19255     -0.40896         0.154650     -0.094089      0.125195
O	     10.30527     10.13310      1.67082         0.158937     -0.089693      0.113423
O	     10.47398      8.32014     -8.29146         0.058596     -0.142263      0.132878
O	     16.79601      8.01548     -6.06303         0.005272      0.135382     -0.145596
O	     -0.01849      8.05288     -6.06686        -0.009063      0.167227     -0.148246
O	      8.39451      5.97670     -3.98613        -0.007950      0.157925     -0.120680
O	      8.33883     10.10195     -8.13505        -0.005667      0.121253     -0.131955
O	      0.01192      5.96005     -0.04731        -0.106528      0.100669     -0.098358
O	      0.17270     10.03958     -4.14227        -0.101328      0.094800     -0.108146
O	      8.43207      7.94840     -2.03813        -0.029322      0.137042     -0.145963
O	      8.37371     12.10036     -6.17282        -0.018078      0.119077     -0.115478
O	     16.78682     11.98809     -2.10002         0.013170      0.144489     -0.143108
O	     -0.00927     11.97006     -2.16228        -0.031251      0.137532     -0.143611
O	      8.42140      9.87936     -0.08225        -0.018949      0.121799     -0.142286
O	      8.33419     14.06711     -4.17255        -0.015042      0.129727     -0.119972
O	      2.09905      9.86484      1.90502        -0.102304      0.160980     -0.135255
O	      2.28009      8.13932     -8.06787        -0.150701      0.129260     -0.140046
O	     10.72081      6.06966     -6.04305        -0.147914      0.096224     -0.117619
O	     10.50007     16.01570     -4.22535        -0.100924      0.140004     -0.123065
O	      2.09705      5.97469     -1.99900        -0.081684      0.133102     -0.160641
O	      2.03479     10.09580     -6.11961        -0.101094      0.122477     -0.090468
O	     10.50368      8.01348     -4.08182        -0.088287      0.144543     -0.123548
O	     10.50031     12.11119     -8.12246        -0.097441      0.131627     -0.144234
O	      2.09255      7.95089     -0.06222        -0.093165      0.157552     -0.120430
O	      2.03211     12.03114     -4.16248        -0.099728      0.105473     -0.154322
O	     10.49990     10.00241     -2.09638        -0.081277      0.126216     -0.154111
O	     10.49320     14.09118     -6.19498        -0.104798      0.123603     -0.121107
