# total energy = -895.97287284 eV
 
CRYSTAL
PRIMVEC
0.000183 5.909383 5.913997 
16.916963 4.029290 -4.031921 
-0.078135 8.207714 -8.213606 
PRIMCOORD
186 1
Li	      8.52310      8.01159      3.76133        -0.001816      0.010611     -0.004311
Li	      8.41650      6.16501     -6.15831        -0.000957      0.030712     -0.031638
Li	      0.05889      5.98447      5.83660        -0.001306      0.027827     -0.012726
Li	     16.83330     14.08124     -2.26509         0.000416      0.011386     -0.009747
Li	      8.47768      4.05632     -0.12294        -0.005402      0.001811      0.007737
Li	      8.41032      8.12348     -4.18685         0.009419      0.019578     -0.021029
Li	     16.81817      6.07478     -2.14171        -0.030307      0.022837     -0.022637
Li	     16.83388     10.14435     -6.20282         0.001188      0.012425     -0.020614
Li	      8.50972      6.07795      1.86022        -0.003839      0.001312     -0.011118
Li	      8.42112     10.10071     -2.23228         0.003007      0.027669     -0.025506
Li	      0.03537      4.01984      3.86495         0.001005      0.013880     -0.034441
Li	     16.87638     12.10737     -4.23398        -0.005936      0.017563     -0.012853
Li	      2.36883      2.13467     -0.15861        -0.022860      0.012889     -0.002649
Li	      2.03676      6.10918     -4.15134        -0.004159     -0.010581      0.008251
Li	     10.64309      3.91750     -2.20585        -0.003770     -0.009986      0.004896
Li	     10.55604      8.12679     -6.15140         0.008463      0.001377      0.002149
Li	      2.38686      4.10049      1.80147        -0.022510      0.003915     -0.011209
Li	      2.05168      8.08903     -2.17344        -0.002988     -0.013020      0.004227
Li	     10.57766      6.04783     -0.02672         0.000924      0.000188      0.010268
Li	     10.59413     10.12393     -4.17402         0.005004     -0.000462     -0.005461
Li	      2.40815      6.08387      3.76510        -0.004756      0.008009     -0.010391
Li	      2.03385     10.06138     -0.20622        -0.010082     -0.007013      0.013745
Li	     10.58410     12.05250     -2.25163        -0.005193      0.007651     -0.004894
Li	      4.20741     12.02693     -0.21979        -0.009131      0.006371     -0.004566
Li	     12.64432     13.99694     -2.30844         0.006902      0.002437      0.004715
Li	      4.20097      8.09975     -4.15854         0.001234      0.002315     -0.010324
Li	     12.66482      5.93945     -2.15061         0.004965     -0.000499     -0.001600
Li	     12.64719     10.19548     -6.10979        -0.003996      0.000979     -0.001941
Li	      4.20761     10.06712     -2.17482        -0.004872      0.009864     -0.006529
Li	     12.60480      8.08238      0.04120         0.003239     -0.002019     -0.005448
Li	      6.07750      3.87279     -1.90920         0.012640     -0.012438      0.013299
Li	      6.32267      8.08220     -6.11990        -0.001191     -0.007803      0.014935
Li	     14.70539      5.95090     -4.04445         0.005179     -0.009191      0.001737
Li	     14.71573     10.10741     -8.12362         0.003759     -0.007889      0.006591
Li	      6.05525      5.83273      0.08208         0.016257     -0.014507      0.008249
Li	      6.31199     10.05449     -4.13831        -0.002155     -0.018398      0.001010
Li	     14.75008      7.97788     -2.07385        -0.001449     -0.005968      0.008991
Li	     14.66334     12.06915     -6.09813         0.004484     -0.006088      0.007220
Li	      6.11346      7.83472      2.02708         0.022016     -0.011547      0.013643
Li	      6.31795     12.02828     -2.17768        -0.003585     -0.014021      0.020895
Li	     14.71102      9.93321     -0.02824         0.007399     -0.011166      0.007888
Li	     14.67927     13.97794     -4.18920         0.007978     -0.006656      0.012798
Ni	     16.88933      6.06820     -6.06925        -0.055096     -0.047505      0.079403
Ni	     16.85602     10.17959    -10.17567        -0.019102     -0.048240      0.032184
Ni	      8.38932      9.98627      1.83403        -0.103059     -0.087554      0.103101
Ni	      8.42886      8.14421     -8.14835        -0.033359     -0.046015      0.052373
Ni	     16.88525      8.03666     -4.10294        -0.082444     -0.083454      0.078558
Ni	     -0.04969      8.11412     -4.17466        -0.008390     -0.060012      0.051681
Ni	      8.43670      6.01512     -2.07406        -0.053111     -0.027601      0.062371
Ni	      8.46608     10.09766     -6.15868        -0.126129     -0.048098      0.043651
Ni	     16.88879     10.00740     -2.12987        -0.054050     -0.089878      0.058479
Ni	     16.85496     14.10566     -6.24607        -0.012151     -0.032132      0.050938
Ni	      8.42425      7.99228     -0.10163        -0.022680     -0.062898      0.008928
Ni	      8.40620     12.10125     -4.22622        -0.121496     -0.096820      0.083337
Ni	      2.11913      4.05471     -2.08628        -0.038220     -0.018895      0.025860
Ni	      2.09782      8.15640     -6.19501        -0.039448      0.035217      0.013017
Ni	     10.53489      6.06024     -4.09892         0.006613      0.014104      0.002678
Ni	     10.54834     10.16883     -8.19380        -0.024940     -0.016150      0.029818
Ni	      2.11669      6.02536     -0.11536        -0.051981     -0.043179      0.002057
Ni	      2.09735     10.13256     -4.21835        -0.029631     -0.008467     -0.045177
Ni	     10.55820      8.04046     -2.14162        -0.010327      0.016090     -0.051432
Ni	     10.53402     12.11882     -6.21085        -0.007409     -0.036970      0.038877
Ni	      2.12272      7.99457      1.85754        -0.043662     -0.010276      0.038043
Ni	      2.09945     12.09235     -2.24203        -0.090143     -0.006142     -0.005868
Ni	     10.54343      9.99307     -0.14814        -0.010073     -0.017707      0.023073
Ni	     10.53252     14.10188     -4.25743         0.011501     -0.015630      0.013130
Ni	      4.14483      4.12681     -4.12897         0.067630      0.037792     -0.016730
Ni	      4.20273      8.15135     -8.15602         0.001050     -0.017617      0.004909
Ni	     12.63245      6.08478     -6.08596         0.018476      0.007294      0.036548
Ni	     12.59645     10.23482    -10.22571         0.004270      0.016282     -0.033865
Ni	      4.15956      6.09970     -2.16152        -0.004700      0.022670     -0.037922
Ni	      4.20984     10.13053     -6.18979         0.021769     -0.024259      0.035496
Ni	     12.63163      8.06698     -4.13482         0.052942      0.001076     -0.018414
Ni	     12.58273     12.18225     -8.23640         0.036036      0.009160     -0.010484
Ni	      4.15874      8.07016     -0.18917         0.007864      0.030215     -0.030487
Ni	      4.18830     12.08328     -4.20433         0.082823     -0.003258      0.017303
Ni	     12.62663     10.04531     -2.17460         0.038709      0.001175     -0.033651
Ni	     12.61975     14.14778     -6.26334        -0.029183     -0.013980      0.008217
Ni	      6.29462      6.12277     -4.14438         0.010534      0.027657     -0.051559
Ni	      6.25028     10.20890     -8.24998         0.039838      0.049579     -0.000223
Ni	     14.72078      8.12554     -6.16151         0.045838      0.042600     -0.011101
Ni	     14.69954     12.22522    -10.27909         0.031242      0.061077     -0.027358
Ni	      6.28491      8.09171     -2.18452         0.021173      0.049528     -0.062745
Ni	      6.26549     12.17594     -6.26875         0.035766      0.015378     -0.015378
Ni	     14.72741     10.10908     -4.18598         0.050756     -0.043062     -0.075469
Ni	     14.69676     14.19964     -8.29702         0.037065      0.046115     -0.059112
Ni	      6.29406     10.05492     -0.21011         0.017678      0.065039     -0.020565
Ni	      6.27794     14.15689     -4.30272         0.020427      0.005741     -0.047890
Ni	     14.72726     12.05798     -2.22197         0.041129      0.072638      0.007433
Ni	     14.74503     16.13528     -6.29048         0.097586      0.078620     -0.088607
O	      4.16109      4.23381     -2.26708         0.104004     -0.148428      0.140661
O	      4.20406      8.23833     -6.25907         0.073049     -0.122027      0.133675
O	     12.63070      6.19633     -4.19940         0.042727     -0.140048      0.129394
O	     12.62088     10.27289     -8.30054         0.087069     -0.120118      0.117996
O	      4.14633      6.20250     -0.29512         0.091767     -0.139996      0.156182
O	      4.21584     10.19403     -4.29426         0.069294     -0.139831      0.116419
O	     12.64712      8.13922     -2.23023         0.042440     -0.112450      0.144504
O	     12.59063     12.24823     -6.36612         0.089263     -0.128133      0.140203
O	      4.17001      8.17635      1.67658         0.094342     -0.156421      0.143214
O	      4.19105     12.15473     -2.30828         0.080813     -0.139233      0.141569
O	     12.62730     10.09994     -0.30213         0.053257     -0.131009      0.144737
O	     12.60426     14.27799     -4.37742         0.074750     -0.138176      0.132958
O	      6.41243      4.20551     -4.19137        -0.163369     -0.088688      0.074512
O	      6.30462      8.30533     -8.31035         0.003996     -0.143146      0.147667
O	     14.74557      6.21459     -6.21445        -0.027277     -0.133146      0.099123
O	     14.74125     16.22781     -4.41509         0.002971     -0.121802      0.133159
O	      6.26907      6.19234     -2.24875         0.062040     -0.119200      0.130574
O	      6.11795     10.23904     -6.30337         0.203087     -0.099393      0.076062
O	     14.74189      8.18784     -4.25122         0.011930     -0.068054      0.091608
O	     14.72838     12.30648     -8.37119         0.009457     -0.128914      0.115935
O	      6.26816      8.16454     -0.29720         0.035028     -0.145971      0.140255
O	      6.44194     12.20988     -4.33102        -0.172584     -0.104882      0.113487
O	     14.75236     10.15479     -2.28321        -0.028790     -0.122905      0.137106
O	     14.74270     14.24643     -6.38082         0.003538     -0.124781      0.111827
O	      4.18869      6.02264     -4.06870        -0.051690      0.132343     -0.126404
O	      4.20035     10.02617     -8.03978        -0.082554      0.141268     -0.141912
O	     12.62916      7.99486     -6.04199        -0.082937      0.117718     -0.142645
O	     12.61440     12.10678    -10.10631        -0.066028      0.152302     -0.136231
O	      4.16080      8.00543     -2.09587        -0.054846      0.135292     -0.117992
O	      4.22589     11.98297     -6.06637        -0.098759      0.141279     -0.145627
O	     12.64200      9.93537     -4.06596        -0.060176      0.149712     -0.128036
O	     12.60262     14.09828     -8.15499        -0.069752      0.107289     -0.142902
O	      4.19194      9.97651     -0.10993        -0.056024      0.124822     -0.136261
O	      4.23591     13.93811     -4.11048        -0.078986      0.153672     -0.136997
O	     12.63528     11.93793     -2.04016        -0.074052      0.139157     -0.151904
O	     12.86445     16.04094     -6.22534        -0.206259      0.099762     -0.090035
O	      6.50497      1.91108     -1.90357         0.011458      0.163659     -0.160693
O	      6.32727      6.03300     -6.03676         0.010520      0.126725     -0.127460
O	     14.93735      9.78952      1.98856         0.021022      0.153836     -0.153694
O	     14.74163     13.95103     -2.13687         0.002860      0.123161     -0.154132
O	      6.47974      3.86954      0.07247        -0.012499      0.151557     -0.168382
O	      6.32155      8.01002     -4.07088        -0.008432      0.133842     -0.129932
O	     14.78462      5.91390     -1.98291        -0.014031      0.124244     -0.129019
O	     14.74303     10.02165     -6.08022        -0.007100      0.136836     -0.121102
O	      6.50304      5.83656      2.04006         0.006434      0.163211     -0.142122
O	      6.31994      9.98147     -2.10063        -0.005971      0.131033     -0.131607
O	     14.82183      7.86914      0.04513        -0.005384      0.148918     -0.132537
O	     14.87860     11.97404     -4.09090         0.008289      0.170120     -0.156131
O	     16.86589      6.15247     -4.17774        -0.000469     -0.160402      0.138294
O	     16.86305     10.24921     -8.28229         0.006881     -0.107339      0.131676
O	      8.42536      4.14263     -2.20796        -0.002814     -0.161033      0.180751
O	      8.41697      8.21797     -6.24618         0.012245     -0.155532      0.139169
O	     16.86026      8.11326     -2.21459        -0.005020     -0.136128      0.158629
O	     -0.04303      8.19069     -2.28809         0.013156     -0.129362      0.119979
O	      8.47322      6.10479     -0.18624         0.013691     -0.139518      0.139974
O	      8.38805     10.21625     -4.28572         0.000620     -0.145140      0.168927
O	     16.86787     10.09274     -0.24730        -0.002647     -0.156335      0.148537
O	     16.83854     14.20034     -4.34911         0.016158     -0.136506      0.128371
O	      8.27068      8.12940      1.75281        -0.019466     -0.199145      0.175528
O	      8.40212     12.17444     -2.34660        -0.003965     -0.157536      0.155192
O	      1.98864      4.13040     -0.18982         0.156890     -0.101039      0.110030
O	      2.07770      8.23999     -4.30542         0.078934     -0.144325      0.134254
O	     10.53792      6.13275     -2.21311         0.060997     -0.124890      0.145258
O	     10.52820     10.23092     -6.28574         0.085180     -0.143861      0.134368
O	      2.00570      6.09984      1.77627         0.116477     -0.124026      0.134853
O	      2.02550     10.20667     -2.30622         0.101345     -0.141721      0.132382
O	     10.53033      8.12348     -0.27467         0.048647     -0.157002      0.157866
O	     10.29269     12.15207     -4.28102         0.230415     -0.081425      0.086487
O	      2.00489      2.16464     -2.16049         0.105806     -0.152364      0.125164
O	      2.02661     12.14785     -0.35636         0.106746     -0.134987      0.143530
O	     10.28721      4.17037     -4.15609         0.262234     -0.085411      0.082386
O	     10.53555     14.16628     -2.37290         0.052354     -0.125097      0.150844
O	     16.86109      7.97740     -6.00656        -0.014588      0.132387     -0.156785
O	     -0.02184      8.06295     -6.07253        -0.011632      0.145230     -0.123246
O	      8.40399      5.96609     -3.98873         0.008239      0.190213     -0.119296
O	      8.41214     10.03036     -8.03868        -0.000661      0.129957     -0.128196
O	     16.87705      9.93539     -4.04104        -0.015088      0.178637     -0.142788
O	     -0.03135     10.02010     -4.13191        -0.013620      0.125365     -0.145241
O	      8.42560      7.91713     -2.01469        -0.006088      0.142012     -0.125532
O	      8.40280     11.98517     -6.09440        -0.006140      0.113816     -0.143487
O	     16.87557     11.91182     -2.05202        -0.022842      0.152966     -0.158720
O	     16.70810     16.02676     -6.19721         0.164313      0.099149     -0.105071
O	      8.40117      9.90653     -0.04758         0.006959      0.124259     -0.204875
O	      8.43950     13.97385     -4.14895        -0.032007      0.158890     -0.111331
O	      2.06993      9.90223      1.91654        -0.071390      0.134920     -0.144402
O	      2.07503      8.06812     -8.07371        -0.047750      0.122988     -0.144089
O	     10.52184     11.88422     -0.07639        -0.074309      0.128409     -0.130072
O	     10.52345     10.11679    -10.05980        -0.101421      0.113661     -0.162221
O	      2.07324      5.95973     -2.02436        -0.075097      0.152961     -0.131888
O	      2.30728     10.08897     -6.14054        -0.201114      0.079305     -0.079878
O	     10.55340      7.97533     -4.04066        -0.139331      0.095564     -0.109502
O	     10.50091     12.07193     -8.13294        -0.092067      0.119410     -0.105389
O	      2.06790      7.93534     -0.04986        -0.048766      0.147684     -0.148922
O	      2.08821     12.01346     -4.13085        -0.056990      0.144517     -0.114995
O	     10.53329      9.94457     -2.06835        -0.077271      0.130090     -0.114407
O	     10.50878     13.97921     -6.13151        -0.074790      0.149122     -0.140225
