# total energy = -895.72946345 eV
 
CRYSTAL
PRIMVEC
0.000086 5.918287 5.918500 
16.878952 4.024269 -4.024254 
-0.090466 8.224506 -8.224287 
PRIMCOORD
186 1
Li	      8.44618      2.08869     -2.08827         0.023970      0.023959     -0.022809
Li	      8.36893      6.16746     -6.16679         0.007418      0.005269     -0.004680
Li	      0.00671      0.07655     -0.07615         0.023970      0.023959     -0.022809
Li	     16.80840      8.17959     -8.17892         0.007418      0.005269     -0.004680
Li	      8.44567      4.06202     -0.11524         0.025122      0.023837     -0.023735
Li	      8.36796      8.14016     -4.19388         0.007721      0.005609     -0.006517
Li	      0.00619      2.04989      1.89689         0.025122      0.023837     -0.023735
Li	     16.80744     10.15229     -6.20601         0.007721      0.005609     -0.006517
Li	      8.44629      6.03475      1.85748         0.025221      0.023093     -0.024286
Li	      8.37016     10.11316     -2.22076         0.005778      0.006349     -0.005395
Li	      0.00681      4.02262      3.86961         0.025221      0.023093     -0.024286
Li	     16.80963     12.12530     -4.23289         0.005778      0.006349     -0.005395
Li	      2.32719      2.11820     -0.14479         0.006584      0.006105     -0.004395
Li	      2.04671      6.12384     -4.15066         0.002959      0.001752     -0.001575
Li	     10.76666      4.13034     -2.15692         0.006584      0.006105     -0.004395
Li	     10.48618      8.13598     -6.16278         0.002959      0.001752     -0.001575
Li	      2.32748      4.09139      1.82832         0.006544      0.005794     -0.006600
Li	      2.04700      8.09656     -2.17624         0.001248     -0.000398     -0.002342
Li	     10.76696      6.10353     -0.18380         0.006544      0.005794     -0.006600
Li	     10.48647     10.10870     -4.18837         0.001248     -0.000398     -0.002342
Li	      2.32751      6.06420      3.80048         0.006765      0.006032     -0.004942
Li	      2.04680     10.06919     -0.20458         0.002226      0.004097     -0.001882
Li	     10.76699      8.07633      1.78835         0.006765      0.006032     -0.004942
Li	     10.48628     12.08132     -2.21671         0.002226      0.004097     -0.001882
Li	      4.18661      6.14867     -6.14818        -0.012118      0.000081      0.000873
Li	     12.62609      8.16081     -8.16030        -0.012118      0.000081      0.000873
Li	      4.18624      8.12149     -4.17478        -0.009208     -0.001974     -0.000720
Li	     12.62571     10.13362     -6.18691        -0.009208     -0.001974     -0.000720
Li	      4.18642     10.09449     -2.20195        -0.010027      0.000642      0.000645
Li	     12.62589     12.10663     -4.21407        -0.010027      0.000642      0.000645
Li	      6.06999      3.87444     -1.90069        -0.011418     -0.007926      0.009581
Li	      6.28188      8.11032     -6.13689         0.002794     -0.025842      0.028902
Li	     14.50946      5.88657     -3.91282        -0.011418     -0.007926      0.009581
Li	     14.72135     10.12246     -8.14902         0.002794     -0.025842      0.028902
Li	      6.07011      5.84761      0.07212        -0.012430     -0.012333      0.010440
Li	      6.28170     10.08378     -4.16384         0.002584     -0.028734      0.027312
Li	     14.50959      7.85975     -1.94000        -0.012430     -0.012333      0.010440
Li	     14.72117     12.09592     -6.17596         0.002584     -0.028734      0.027312
Li	      6.06941      7.82010      2.04462        -0.013015     -0.009426      0.009948
Li	      6.28227     12.05620     -2.19164         0.003334     -0.028785      0.026905
Li	     14.50889      9.83223      0.03249        -0.013015     -0.009426      0.009948
Li	     14.72174     14.06833     -4.20377         0.003334     -0.028785      0.026905
Ni	     16.83594      6.07070     -6.06952        -0.067188     -0.061904      0.062999
Ni	     -0.05334      6.14185     -6.14058        -0.040087     -0.056494      0.056051
Ni	      8.39646      4.05857     -4.05739        -0.067188     -0.061904      0.062999
Ni	      8.38614      8.15398     -8.15271        -0.040087     -0.056494      0.056051
Ni	     16.83571      8.04323     -4.09674        -0.067054     -0.063295      0.068868
Ni	     -0.05310      8.11441     -4.16775        -0.041357     -0.056198      0.061112
Ni	      8.39624      6.03109     -2.08461        -0.067054     -0.063295      0.068868
Ni	      8.38637     10.12655     -6.17987        -0.041357     -0.056198      0.061112
Ni	     16.83583     10.01611     -2.12396        -0.059919     -0.064638      0.057311
Ni	     -0.05319     10.08722     -2.19515        -0.038382     -0.059180      0.055537
Ni	      8.39635      8.00398     -0.11183        -0.059919     -0.064638      0.057311
Ni	      8.38628     12.09936     -4.20728        -0.038382     -0.059180      0.055537
Ni	      2.11684      4.05782     -2.08425        -0.020968     -0.024592      0.027893
Ni	      2.05796      8.15700     -6.18316         0.005350     -0.005430      0.002364
Ni	     10.55631      6.06996     -4.09638        -0.020968     -0.024592      0.027893
Ni	     10.49743     10.16913     -8.19529         0.005350     -0.005430      0.002364
Ni	      2.11654      6.03104     -0.11134        -0.022012     -0.032786      0.021703
Ni	      2.05807     10.12967     -4.21005        -0.000107     -0.006958      0.002431
Ni	     10.55602      8.04317     -2.12348        -0.022012     -0.032786      0.021703
Ni	     10.49755     12.14180     -6.22218        -0.000107     -0.006958      0.002431
Ni	      2.11635      8.00389      1.86104        -0.024319     -0.026424      0.033613
Ni	      2.05773     12.10254     -2.23745         0.004847     -0.000970      0.008531
Ni	     10.55582     10.01602     -0.15109        -0.024319     -0.026424      0.033613
Ni	     10.49720     14.11468     -4.24958         0.004847     -0.000970      0.008531
Ni	      4.15178      4.13567     -4.13465         0.011570      0.030658     -0.029372
Ni	      4.15664      8.16161     -8.16037         0.013845     -0.026592      0.025450
Ni	     12.59125      6.14781     -6.14678         0.011570      0.030658     -0.029372
Ni	     12.59612     10.17374    -10.17250         0.013845     -0.026592      0.025450
Ni	      4.15240      6.10809     -2.16145         0.015396      0.030643     -0.028608
Ni	      4.15689     10.13420     -6.18742         0.011743     -0.024266      0.028422
Ni	     12.59188      8.12023     -4.17358         0.015396      0.030643     -0.028608
Ni	     12.59635     12.14633     -8.19954         0.011743     -0.024266      0.028422
Ni	      4.15144      8.08124     -0.18909         0.016147      0.027184     -0.029079
Ni	      4.15658     12.10703     -4.21473         0.011439     -0.028991      0.024660
Ni	     12.59092     10.09337     -2.20122         0.016147      0.027184     -0.029079
Ni	     12.59605     14.11916     -6.22686         0.011439     -0.028991      0.024660
Ni	      6.26504      6.12990     -4.15648         0.014672      0.048160     -0.044845
Ni	      6.21303     10.22760     -8.25378         0.009580      0.049385     -0.049837
Ni	     14.70452      8.14203     -6.16861         0.014672      0.048160     -0.044845
Ni	     14.65251     12.23973    -10.26590         0.009580      0.049385     -0.049837
Ni	      6.26517      8.10322     -2.18335         0.020664      0.041863     -0.053290
Ni	      6.21274     12.20067     -6.28089         0.015294      0.047728     -0.052696
Ni	     14.70465     10.11536     -4.19548         0.020664      0.041863     -0.053290
Ni	     14.65221     14.21281     -8.29301         0.015294      0.047728     -0.052696
Ni	      6.26557     10.07608     -0.21125         0.018271      0.055541     -0.047607
Ni	      6.21310     14.17328     -4.30814         0.012127      0.054582     -0.049182
Ni	     14.70504     12.08822     -2.22338         0.018271      0.055541     -0.047607
Ni	     14.65258     16.18542     -6.32027         0.012127      0.054582     -0.049182
O	      4.15441      4.24367     -2.26994         0.064746     -0.187625      0.182700
O	      4.15491      8.23082     -6.25701         0.091293     -0.123423      0.130632
O	     12.59389      6.25581     -4.28207         0.064746     -0.187625      0.182700
O	     12.59439     10.24296     -8.26914         0.091293     -0.123423      0.130632
O	      4.15371      6.21649     -0.29722         0.067743     -0.180991      0.188855
O	      4.15469     10.20352     -4.28422         0.090876     -0.125953      0.130836
O	     12.59319      8.22863     -2.30934         0.067743     -0.180991      0.188855
O	     12.59416     12.21565     -6.29635         0.090876     -0.125953      0.130836
O	      4.15284      8.18928      1.67558         0.069885     -0.181385      0.183574
O	      4.15402     12.17658     -2.31140         0.095176     -0.130168      0.123103
O	     12.59232     10.20142     -0.33655         0.069885     -0.181385      0.183574
O	     12.59350     14.18871     -4.32353         0.095176     -0.130168      0.123103
O	      6.25567      4.22604     -4.22555         0.026872     -0.128959      0.128104
O	      6.24901      8.30891     -8.30802         0.046629     -0.146291      0.148151
O	     14.69515      6.23817     -6.23767         0.026872     -0.128959      0.128104
O	     14.68849     10.32104    -10.32015         0.046629     -0.146291      0.148151
O	      6.25287      6.19760     -2.25102         0.039870     -0.125319      0.121866
O	      6.24791     10.28153     -6.33459         0.052198     -0.143588      0.142166
O	     14.69235      8.20973     -4.26314         0.039870     -0.125319      0.121866
O	     14.68739     12.29366     -8.34672         0.052198     -0.143588      0.142166
O	      6.25725      8.17262     -0.28016         0.019215     -0.130265      0.138511
O	      6.24983     12.25476     -4.36277         0.042319     -0.145324      0.150041
O	     14.69672     10.18475     -2.29229         0.019215     -0.130265      0.138511
O	     14.68930     14.26689     -6.37490         0.042319     -0.145324      0.150041
O	      4.15661      6.03806     -4.06373        -0.060388      0.136121     -0.138538
O	      4.16238     10.02735     -8.05307        -0.021714      0.180405     -0.178555
O	     12.59609      8.05019     -6.07586        -0.060388      0.136121     -0.138538
O	     12.60186     12.03948    -10.06520        -0.021714      0.180405     -0.178555
O	      4.15693      8.01038     -2.09134        -0.060907      0.138495     -0.134469
O	      4.16241     12.00002     -6.08056        -0.023861      0.178679     -0.176649
O	     12.59640     10.02251     -4.10347        -0.060907      0.138495     -0.134469
O	     12.60189     14.01215     -8.09268        -0.023861      0.178679     -0.176649
O	      4.15692      9.98400     -0.11878        -0.062183      0.130673     -0.136646
O	      4.16286     13.97306     -4.10775        -0.025162      0.173001     -0.180752
O	     12.59639     11.99614     -2.13091        -0.062183      0.130673     -0.136646
O	     12.60234     15.98520     -6.11987        -0.025162      0.173001     -0.180752
O	      6.45264      1.90212     -1.90101         0.011642      0.147941     -0.151486
O	      6.29121      6.04639     -6.04521         0.012276      0.145107     -0.146646
O	     14.89211      3.91425     -3.91314         0.011642      0.147941     -0.151486
O	     14.73069      8.05853     -8.05734         0.012276      0.145107     -0.146646
O	      6.45221      3.87473      0.07190         0.012838      0.147106     -0.148331
O	      6.29111      8.01829     -4.07169         0.011712      0.141745     -0.145445
O	     14.89169      5.88687     -1.94022         0.012838      0.147106     -0.148331
O	     14.73059     10.03043     -6.08381         0.011712      0.141745     -0.145445
O	      6.45263      5.84775      2.04458         0.013521      0.148638     -0.149010
O	      6.29167      9.99196     -2.09992         0.012621      0.143343     -0.140315
O	     14.89210      7.85988      0.03245         0.013521      0.148638     -0.149010
O	     14.73115     12.00409     -4.11204         0.012621      0.143343     -0.140315
O	     16.85217      6.16278     -4.18868        -0.018592     -0.166205      0.166288
O	     16.81616     10.24745     -8.27332        -0.003887     -0.138861      0.144043
O	      8.41269      4.15065     -2.17655        -0.018592     -0.166205      0.166288
O	      8.37668      8.23531     -6.26119        -0.003887     -0.138861      0.144043
O	     16.85252      8.13527     -2.21615        -0.019160     -0.166967      0.170173
O	     16.81635     12.22008     -6.30083        -0.003952     -0.143782      0.143693
O	      8.41304      6.12314     -0.20402        -0.019160     -0.166967      0.170173
O	      8.37688     10.20794     -4.28870        -0.003952     -0.143782      0.143693
O	     16.85363     10.10812     -0.24284        -0.019277     -0.164579      0.160506
O	     16.81630     14.19338     -4.32797        -0.003832     -0.145050      0.138902
O	      8.41416      8.09598      1.76928        -0.019277     -0.164579      0.160506
O	      8.37682     12.18125     -2.31585        -0.003832     -0.145050      0.138902
O	      1.97791      4.13816     -0.19156         0.123621     -0.113995      0.114848
O	      2.03744      8.22640     -4.27979         0.076878     -0.136956      0.133102
O	     10.41739      6.15030     -2.20369         0.123621     -0.113995      0.114848
O	     10.47692     10.23854     -6.29192         0.076878     -0.136956      0.133102
O	      1.97935      6.11148      1.78036         0.116184     -0.116823      0.121259
O	      2.03816     10.19928     -2.30698         0.074514     -0.134974      0.139462
O	     10.41883      8.12361     -0.23177         0.116184     -0.116823      0.121259
O	     10.47764     12.21141     -4.31911         0.074514     -0.134974      0.139462
O	      1.97881      2.16602     -2.16454         0.124730     -0.120471      0.116693
O	      2.03778      6.25398     -6.25276         0.075380     -0.138511      0.138341
O	     10.41828      4.17815     -4.17666         0.124730     -0.120471      0.116693
O	     10.47726      8.26612     -8.26489         0.075380     -0.138511      0.138341
O	     16.81680      7.97879     -6.00400        -0.019249      0.153450     -0.159793
O	     -0.03906      8.04083     -6.06670        -0.042545      0.153069     -0.151096
O	      8.37732      5.96665     -3.99187        -0.019249      0.153450     -0.159793
O	      8.40042     10.05297     -8.07882        -0.042545      0.153069     -0.151096
O	     16.81732      9.95013     -4.03259        -0.016480      0.162289     -0.153626
O	     -0.03840     10.01318     -4.09438        -0.049275      0.152692     -0.150802
O	      8.37784      7.93800     -2.02046        -0.016480      0.162289     -0.153626
O	      8.40107     12.02531     -6.10651        -0.049275      0.152692     -0.150802
O	     16.81839     11.92456     -2.05898        -0.023559      0.151980     -0.154958
O	     -0.03795     11.98651     -2.12137        -0.047457      0.149814     -0.152273
O	      8.37891      9.91243     -0.04685        -0.023559      0.151980     -0.154958
O	      8.40152     13.99865     -4.13350        -0.047457      0.149814     -0.152273
O	      2.08110      3.99431     -3.99299        -0.129837      0.151136     -0.154841
O	      2.07302      8.07999     -8.07874        -0.105753      0.135897     -0.137592
O	     10.52058      6.00645     -6.00512        -0.129837      0.151136     -0.154841
O	     10.51250     10.09213    -10.09086        -0.105753      0.135897     -0.137592
O	      2.08507      5.96703     -2.02053        -0.144675      0.144027     -0.150127
O	      2.07481     10.05279     -6.10588        -0.109493      0.129993     -0.137235
O	     10.52455      7.97916     -4.03266        -0.144675      0.144027     -0.150127
O	     10.51428     12.06492     -8.11801        -0.109493      0.129993     -0.137235
O	      2.07886      7.93951     -0.04767        -0.122383      0.155521     -0.148855
O	      2.07218     12.02492     -4.13291        -0.100718      0.141113     -0.134965
O	     10.51833      9.95164     -2.05980        -0.122383      0.155521     -0.148855
O	     10.51166     14.03706     -6.14504        -0.100718      0.141113     -0.134965
