# total energy = -896.98205883 eV
 
CRYSTAL
PRIMVEC
-0.002075 5.912455 5.910841 
16.919248 4.080696 -4.085646 
-0.023222 8.204848 -8.202086 
PRIMCOORD
187 1
Li	      8.42170      2.16598     -2.02995        -0.023634      0.019285     -0.056972
Li	      8.39996     12.07865     -0.28156        -0.000780      0.059257     -0.039116
Li	     16.90372     10.03624      1.77604        -0.006245      0.023169     -0.015238
Li	     16.87245      8.29850     -8.14817        -0.023590      0.030330     -0.020773
Li	      8.34499      8.21669     -4.20493         0.002058     -0.000416     -0.027304
Li	     16.90708      6.09759     -2.16691        -0.033744      0.022740     -0.030187
Li	      8.42011      5.97255      1.77046        -0.021195      0.007275      0.000214
Li	      8.34822     10.12577     -2.29480        -0.002725      0.040226      0.006695
Li	     16.90446      8.08067     -0.18789         0.000381      0.020883     -0.017206
Li	     16.87129     12.08963     -4.36105        -0.052531      0.074695     -0.016249
Li	      2.16202      2.05990     -0.04500         0.005257      0.045982     -0.038851
Li	      2.03613      6.12386     -4.10943         0.006381      0.004332      0.006597
Li	     10.48909      4.04542     -2.03123         0.026974     -0.004701      0.045088
Li	     10.58708      8.18355     -6.17514         0.001582     -0.002224     -0.011495
Li	      2.16239      3.98748      1.88135        -0.007397      0.015740      0.017040
Li	      2.03524      8.05603     -2.18401         0.001466      0.044781     -0.014943
Li	     10.48607      5.97170     -0.10471         0.020923     -0.038986      0.002951
Li	     10.61442     10.12183     -4.25300        -0.055075      0.019239     -0.022047
Li	      2.11834      5.95741      3.89588         0.026871     -0.004697     -0.022062
Li	      2.06564     10.05997     -0.20620        -0.002004     -0.063676      0.005436
Li	     10.52674      7.98897      1.85709        -0.001800     -0.052937      0.060375
Li	     10.55194     12.08929     -2.24133         0.003049      0.089507     -0.097880
Li	      4.26318      2.10807     -1.96429         0.016379     -0.009048      0.089964
Li	      4.25103     12.06288     -0.26330        -0.006539      0.066075     -0.010434
Li	     12.68998      9.99425      1.81732        -0.001547      0.000746      0.013294
Li	     12.70409      8.26824     -8.11494         0.006540     -0.018230     -0.000815
Li	      4.29903      8.17855     -4.18081        -0.030801     -0.010383     -0.003108
Li	     12.69167      6.05063     -2.11181        -0.007192     -0.008093      0.002515
Li	      4.26374      5.90778      1.83086         0.026169     -0.039930      0.049959
Li	      4.29656     10.11417     -2.26385        -0.024166      0.014369     -0.048704
Li	     12.68994      8.03302     -0.14443         0.005192     -0.007344      0.000179
Li	     12.70927     12.06234     -4.32847         0.017332      0.048072      0.030473
Li	      6.36811      4.00655     -1.94834        -0.010804     -0.046794      0.133827
Li	      6.34169      8.17094     -6.06421        -0.016805      0.026713     -0.007054
Li	     14.81508      6.05863     -4.09118         0.005639      0.069181     -0.000420
Li	     14.81486     10.15210     -8.08950         0.023456     -0.030876      0.070609
Li	      6.36718      5.89072     -0.06887         0.017830     -0.079629      0.023195
Li	     14.81480      8.02910     -2.12202        -0.001831     -0.008543     -0.007647
Li	     14.81399     12.02905     -6.21507         0.025992     -0.027768      0.037427
Li	      6.35924      7.95688      1.90478        -0.005510     -0.075974      0.047081
Li	      6.35332     11.98966     -2.27484         0.011164      0.013673     -0.050919
Li	     14.82125     10.00684     -0.15444         0.001125      0.008529     -0.056819
Li	     14.80845     14.09450     -4.24066         0.007357     -0.105536      0.035658
Ni	      0.01548      7.93308      3.88832        -0.082836     -0.086279      0.097854
Ni	     -0.00924     12.05921     -0.24344        -0.032842     -0.065419      0.051088
Ni	      8.45358      9.99266      1.82197        -0.034618     -0.066947      0.063096
Ni	      8.44019     14.07173     -2.25712         0.019706     -0.222408      0.004662
Ni	      0.00201      4.01207     -0.06960        -0.079307     -0.154715      0.025962
Ni	     -0.01388      8.10749     -4.16645        -0.076675     -0.087628      0.088497
Ni	      8.48791      6.03808     -2.09711        -0.098364     -0.090161      0.086682
Ni	      8.43738     10.17257     -6.22902        -0.232787     -1.010877      0.331096
Ni	      0.01636      5.96635      1.92179        -0.073952     -0.034843      0.185517
Ni	     -0.01150     10.10076     -2.20374        -0.043993     -0.046497      0.071322
Ni	      8.45156      8.03560     -0.14686        -0.032578     -0.061092      0.070525
Ni	      8.44570     12.09927     -4.22874         0.016969      0.062732      0.134902
Ni	      2.13422      4.06373     -2.08277         0.014487     -0.040752     -0.014707
Ni	      2.11372      8.16358     -6.18909         0.012157     -0.099065      0.003254
Ni	     10.57763      6.10147     -4.13025        -0.042519     -0.007737      0.005110
Ni	     10.55241     10.20253     -8.22994         0.066979      0.169475      0.101567
Ni	      2.13211      6.02730     -0.12258         0.084506     -0.080245      0.090510
Ni	      2.09749     10.14015     -4.22719        -0.073265     -0.012727      0.112081
Ni	     10.57722      8.07216     -2.16394        -0.047593     -0.024698      0.003304
Ni	     10.55914     12.17227     -6.26718         0.014712     -0.145872     -0.152777
Ni	      2.12375      7.99058      1.86314        -0.049974      0.029399      0.059296
Ni	      2.11660     12.10525     -2.25175        -0.010829     -0.010056      0.012175
Ni	     10.56988     10.04594     -0.19552        -0.027710      0.010098      0.013848
Ni	     10.56276     14.15417     -4.30027        -0.026905     -0.045857      0.036449
Ni	      4.20160     10.01622      1.80284         0.007219      0.013041     -0.026817
Ni	      4.22723     14.09153     -2.26965         0.039764     -0.011922      0.000553
Ni	     12.66966     12.03516     -0.22186         0.052058      0.006380     -0.015595
Ni	     12.64245     16.16644     -4.34801         0.015053      0.027098     -0.087763
Ni	      4.22308      6.06526     -2.12159         0.039596     -0.018365     -0.144424
Ni	      4.19761     10.15809     -6.20284         0.134037      0.189524     -0.232104
Ni	     12.67382      8.10335     -4.16488         0.128236     -0.071063     -0.046916
Ni	     12.66933     12.20347     -8.26309        -0.049509      0.054823     -0.040652
Ni	      4.20141      8.05618     -0.16704        -0.047001      0.111561      0.005555
Ni	      4.22557     12.12220     -4.23685         0.117406      0.002894      0.076400
Ni	     12.67221     10.07258     -2.18393         0.102748      0.022129      0.084636
Ni	     12.64017     14.20205     -6.31423         0.055933      0.082105     -0.028842
Ni	      6.30294      6.10085     -4.14538         0.015805      0.051767     -0.050786
Ni	      6.32745     10.24008     -8.25578        -0.210959      0.114487     -0.021758
Ni	     14.77489      8.17821     -6.19293        -0.138054      0.047300     -0.057450
Ni	     14.76212     12.27378    -10.30660         0.011220      0.085226     -0.021422
Ni	      6.29837      8.09645     -2.18160         0.023612      0.055676     -0.097564
Ni	      6.32028     12.19282     -6.28906        -0.198049     -0.047075     -0.234815
Ni	     14.77488     10.13198     -4.23989        -0.234129      0.265172     -0.845333
Ni	     14.76187     14.24832     -8.33435         0.023986      0.018247     -0.077443
Ni	      6.31322     10.07654     -0.21248         0.010655      0.078267     -0.046697
Ni	      6.30259     14.19663     -4.33528         0.064657      0.117386     -0.041094
Ni	     14.77555     12.11852     -2.26771         0.052390      0.073404     -0.097525
Ni	     14.75890     16.23151     -6.37853         0.035389      0.074354     -0.075206
O	      4.23565      4.19727     -2.24469         0.057606     -0.143094      0.146916
O	      4.22886      8.26804     -6.27069         0.056436     -1.025073      0.204179
O	     12.68261      6.20165     -4.22638         0.025602     -0.123500      0.139391
O	     12.66291     10.31354     -8.39119        -0.125899     -0.193213      0.135088
O	      4.23049      6.19399     -0.25520        -0.141679     -0.202110      0.237786
O	      4.10799     10.22332     -4.31968         0.030305     -0.195377      1.032032
O	     12.68535      8.16677     -2.26479         0.036482     -0.129482      0.128195
O	     12.66355     12.33364     -6.37496        -0.116442     -0.130816      0.168618
O	      4.20792      8.11220      1.73951         0.068608     -0.103276      0.094056
O	      4.22028     12.19528     -2.34681         0.065471     -0.132001      0.125678
O	     12.67759     10.14010     -0.28868         0.010366     -0.143899      0.120219
O	     12.65174     14.26511     -4.41259         0.039289     -0.068977      0.097064
O	      6.31027     10.12255      1.68500         0.022020     -0.139940      0.148262
O	      6.32507     14.24222     -2.42270         0.040252     -0.161587      0.130992
O	     14.78594     12.17708     -0.36056         0.050256     -0.164717      0.170132
O	     14.76780     16.29243     -4.48049        -0.009498     -0.174258      0.160908
O	      6.14284      6.15775     -2.20400         0.097852     -0.099247      0.112699
O	      6.49442     10.26721     -6.35511        -1.180269     -0.582230     -0.037558
O	     14.79382      8.22106     -4.28265         0.002609     -1.155427      0.152849
O	     14.75395     12.32886     -8.38451         0.111613     -0.106575      0.088833
O	      6.30862      8.17284     -0.28985         0.019014     -0.150690      0.160518
O	      6.32251     12.32127     -4.39409        -0.019600     -0.160124      1.106282
O	     14.78690     10.21099     -2.32633        -0.021562     -0.124739      1.000205
O	     14.77312     14.33348     -6.44130        -0.001732     -0.133053      0.178963
O	      4.19380      6.00156     -4.00175        -0.055602      0.140108     -0.129026
O	      4.24109     10.04291     -8.08515        -0.101873      0.068290     -0.921508
O	     12.66547      7.98447     -6.05426        -0.090353      0.096055     -0.102221
O	     12.65108     12.15495    -10.16222        -0.025756      0.111251     -0.182903
O	      4.18729      7.94817     -2.06885        -0.070934      0.157648     -0.142893
O	      4.23317     12.03528     -6.09624         0.092403      1.004174     -0.150400
O	     12.66965      9.99541     -4.04664         0.240248      0.136734     -0.144484
O	     12.66090     14.10731     -8.21576        -0.021101      0.186484     -0.127443
O	      4.18533      9.95032     -0.09316        -0.036504      0.133231     -0.152285
O	      4.20818     14.04037     -4.18183        -0.068813      0.073160     -0.071126
O	     12.66651     11.98189     -2.13180        -0.047211      0.040987     -0.072662
O	     12.64376     16.10467     -6.25085        -0.046521      0.100111     -0.127715
O	      6.32859      1.96892     -1.94814         0.038626      0.088227     -0.176620
O	      6.32900      6.06126     -6.05009         0.006867      0.100985     -0.106938
O	     14.79174      4.00288     -3.99698         0.002226      0.122097     -0.136953
O	     14.78387      8.09861     -8.08999        -0.003626      0.145361     -0.091592
O	      6.33238      3.88199      0.06776         0.064685      0.210406     -1.077660
O	      6.31122      7.94679     -4.05401         0.017607      0.174671     -0.151605
O	     14.79363      5.95391     -2.01609         0.006920      0.142763     -0.148420
O	     14.78015     10.02790     -6.08893         0.144980      0.159462     -0.463955
O	      6.32934      5.88985      1.97063         0.021861      0.830240     -0.119097
O	      6.32357      9.98349     -2.06313         0.009291      0.129477     -0.180662
O	     14.79317      7.93500     -0.06593         0.003754      0.142448     -0.134537
O	     14.78396     12.02949     -4.16050         0.012184      0.937460     -0.008011
O	      0.00244      2.11805     -0.13304         0.012512     -0.151221      0.150248
O	     16.90364     10.30911     -8.38496         0.024647     -0.136657      0.131951
O	      8.44209      4.16763     -2.23231         0.003127     -0.139970      0.123964
O	      8.43554      8.29199     -6.27932        -0.007020     -0.771979      0.170670
O	      0.00131      4.07672      1.82321         0.018269     -0.144341      0.144986
O	     16.89923     12.32659     -6.37271         0.028957     -0.142967      0.134925
O	      8.44159      6.18068     -0.22945        -0.004258     -0.123384      0.138316
O	      8.56544     10.23441     -4.36465         0.034575     -0.173688      0.785703
O	     16.91421     10.12339     -0.27258         0.036001     -0.125125      0.106799
O	     -0.00945     10.16108     -0.30582         0.005532     -0.073156      0.105199
O	      8.45544      8.09756      1.75173        -0.024650     -0.095516      0.095163
O	      8.44926     12.18051     -2.33872        -0.033280     -0.137201      0.148906
O	      2.03656      4.14933     -0.20556         0.016338     -0.913257      0.131698
O	      2.07822      8.23814     -4.29243         0.094896     -0.122609      0.123428
O	     10.56293      6.16839     -2.22701         0.072325     -0.119710      0.122797
O	     10.32822     10.23802     -6.31823         1.229456     -0.362530      0.547868
O	      2.12498      6.08898      1.79690         0.124223     -0.181274      0.575275
O	      2.09700     10.20650     -2.33290         0.025901     -0.125902      0.127816
O	     10.56471      8.14759     -0.27247         0.066006     -0.128127      0.138882
O	     10.57079     12.25919     -4.38214         0.079656     -0.185580      0.976762
O	      2.12597      8.05658      3.76591         0.097535     -0.094879      0.039540
O	      2.11568      6.26574     -6.26309         0.029344     -0.120626      0.117514
O	     10.56304      4.20877     -4.20418         0.066018     -0.127358      0.115331
O	     10.55474      8.30959     -8.30241         0.107570     -0.920628      0.188134
O	      0.01160      3.89482     -1.96829         0.030737      0.126207     -0.114992
O	     -0.02033      8.05774     -6.07293         0.010969      0.153704     -0.159451
O	      8.42391      5.98745     -3.99233        -0.003549      0.136902     -0.148528
O	      8.44214     10.03593     -8.10780         0.275057      0.031412     -0.771444
O	      0.01009      5.91137      0.04730        -0.017554      0.171073     -0.128034
O	     -0.01697     10.01999     -4.12145         0.013085      0.166020     -0.149122
O	      8.42594      7.93929     -2.06014        -0.012834      0.163567     -0.144942
O	      8.44715     12.04146     -6.10369         0.088296      1.343216      0.043347
O	      0.00948      7.87516      1.98005         0.038244      0.109013     -0.127139
O	     -0.00695     12.00883     -2.15048        -0.021518      0.124424     -0.138330
O	      8.45629      9.94116     -0.08613        -0.030877      0.141990     -0.150449
O	      8.44486     14.01262     -4.16437         0.022958      0.142520     -0.141891
O	      2.11442      3.98091     -3.97051        -0.091312      0.136263     -0.111949
O	      2.12960      8.09185     -8.08232        -0.083873      0.135983     -0.122351
O	     10.56920      6.03143     -6.03029        -0.079973      0.123879     -0.118939
O	     10.54405     10.13848    -10.13697        -0.092991      0.173541     -0.769695
O	      2.34716      5.98674     -2.04616        -0.088179      0.143761     -0.609899
O	      2.09855     10.06486     -6.12681         0.147258      0.177648     -0.178898
O	     10.58043      7.99332     -4.05724        -0.089376      0.155086     -0.146959
O	     10.66816     12.09003     -8.14620        -0.062421      0.832877     -0.905085
O	      2.10942      7.91508     -0.03973        -0.087495      0.971683     -0.177700
O	      2.10325     12.03814     -4.14861        -0.095376      0.129800     -0.135688
O	     10.57850      9.97128     -2.09304        -0.113251      0.129437     -0.173473
O	     10.55017     14.09148     -6.20438        -0.108200      0.659996     -0.162439
