# total energy = -92.22935089 eV
 
CRYSTAL
PRIMVEC
-0.000004 2.066477 2.066724 
4.095942 -4.305720 4.306109 
4.062884 4.291125 -4.291577 
PRIMCOORD
16 1
Li	      4.16678      2.09827     -2.09471        -0.024976      0.003025     -0.003281
Li	      2.13544     -0.26505      2.33457        -0.002284     -0.000028      0.000283
Li	      3.99438     -1.93698      1.93978         0.003398     -0.001123     -0.001780
Li	      6.02587     -0.00907      2.07755         0.023827     -0.003108      0.003483
Mn	      8.12290     -0.05040      0.05294        -0.011307     -0.024268      0.024972
Mn	      2.06949      2.13990     -0.07030         0.012221      0.021464     -0.021605
Ni	      4.10185     -0.07359      0.07640        -0.001180      0.028987     -0.029163
Ni	      6.09066      2.16280     -0.09365        -0.000459     -0.026929      0.027073
O	      6.09784      2.07249     -2.06996         0.011276      0.154592     -0.155103
O	      6.22854      0.03974     -0.03725         0.112183     -0.084772      0.084505
O	      4.16094     -2.35620      4.42596         0.071271     -0.009260      0.009265
O	      2.02394      1.99164     -1.98851         0.013414     -0.018048      0.017449
O	      4.07264      4.40357     -2.33493        -0.010759      0.018331     -0.016499
O	      1.96858      0.15461     -0.15178        -0.073495      0.008008     -0.007121
O	      3.96380      2.04952      0.02003        -0.112571      0.085165     -0.084986
O	      4.09464      0.01658      2.05275        -0.010560     -0.152036      0.152506
