# total energy = -902.11055929 eV
 
CRYSTAL
PRIMVEC
-0.000011 5.906360 5.913195 
16.930177 4.071708 -4.076499 
-0.030601 8.196149 -8.205104 
PRIMCOORD
187 1
Li	      8.42899      2.16523     -2.03032         0.004076      0.004727     -0.019781
Li	      8.51937      6.22144     -6.18781        -0.003712      0.010050     -0.020532
Li	     16.92202     10.01838      1.78781         0.005331      0.013087     -0.014210
Li	     16.88556      8.28824     -8.14977         0.001460      0.012005     -0.014776
Li	      8.52658      8.14542     -4.27362        -0.007830      0.011147     -0.004825
Li	     16.91915      6.08487     -2.13991         0.005715      0.012043     -0.013321
Li	      8.42625      5.96905      1.77855         0.004071      0.020822     -0.007476
Li	      8.47729     10.12536     -2.22242         0.008304      0.020596     -0.019437
Li	     16.92412      8.05298     -0.17325         0.008829      0.014859     -0.008654
Li	     16.87081     12.06462     -4.35388        -0.000799      0.017892     -0.012102
Li	      2.16770      2.06448     -0.04370        -0.001788     -0.004876      0.001161
Li	      2.01684      6.10956     -4.11407         0.013230     -0.001721     -0.012880
Li	     10.49666      4.04828     -2.05455         0.013665     -0.005927     -0.008231
Li	      2.16652      3.98335      1.88192        -0.000131     -0.000936      0.006443
Li	      2.01470      8.04575     -2.16916         0.013580      0.012158      0.000629
Li	     10.49598      5.99131     -0.10942         0.010080      0.006009      0.010550
Li	     10.62346      9.99403     -4.36229         0.002349      0.008600      0.007866
Li	      2.12974      5.94302      3.89670         0.006792     -0.002454      0.006091
Li	      2.04659     10.04588     -0.20106         0.003736     -0.000200      0.002316
Li	     10.53227      7.98929      1.85235         0.001686     -0.004848      0.001475
Li	     10.57116     12.14442     -2.16484         0.003004     -0.011652     -0.012034
Li	      4.27937      2.10759     -1.96157        -0.002047     -0.007435     -0.007717
Li	      4.21900     12.04637     -0.26032         0.004548      0.008225     -0.008530
Li	     12.69072      9.98181      1.80581        -0.004844      0.000160     -0.003266
Li	     12.62387      8.27028     -8.02073         0.004193     -0.003204     -0.013173
Li	      4.21890      8.11218     -4.17493        -0.006780      0.008144     -0.013347
Li	     12.68558      6.05275     -2.10973        -0.011950      0.003006     -0.002981
Li	      4.26668      5.89894      1.83132        -0.008757      0.007289      0.008011
Li	      4.22644     10.10624     -2.20742         0.003074      0.009341     -0.005147
Li	     12.68776      8.03769     -0.14253        -0.005731      0.000912      0.003292
Li	     12.67830     12.03205     -4.29775        -0.004229      0.004264      0.012439
Li	      6.38178      3.99988     -1.92898        -0.015526     -0.015251      0.016387
Li	      6.32582      8.10269     -6.14018         0.013678     -0.009238      0.012381
Li	     14.82261      6.03206     -4.06623        -0.004192     -0.020203      0.023453
Li	     14.80689     10.12266     -8.06025        -0.008020     -0.023622      0.020474
Li	      6.37637      5.86651     -0.06126        -0.016398     -0.013182      0.016330
Li	      6.36453     10.06837     -4.16743         0.002102     -0.007959      0.010524
Li	     14.81797      8.01080     -2.08522         0.000478     -0.016071      0.013222
Li	     14.80928     11.99890     -6.19668        -0.013297     -0.019719      0.019938
Li	      6.36403      7.94224      1.90915        -0.015972     -0.015646      0.016036
Li	      6.37973     12.05487     -2.20599         0.004162     -0.006802      0.005572
Li	     14.82999      9.97460     -0.14040        -0.002790     -0.015675      0.017149
Li	     14.79585     14.06174     -4.24364        -0.011238     -0.025860      0.013144
Ni	     -0.00483      7.92646      3.88701         0.012173     -0.062591      0.060175
Ni	     16.90280     16.11992     -4.31930        -0.027354     -0.051982      0.024788
Ni	      8.45958      9.98935      1.82044        -0.023480     -0.041122      0.013392
Ni	      8.47455      8.16469     -8.15941        -0.009881     -0.088785      0.000458
Ni	     16.92222      8.08139     -4.13501        -0.005548     -0.048827      0.037316
Ni	      0.00474      8.09199     -4.15841        -0.108536     -0.057753      0.061101
Ni	      8.49233      6.03288     -2.09781        -0.102669     -0.051165      0.052482
Ni	      8.43577     10.16668     -6.23823        -0.040471     -0.067062      0.075355
Ni	      0.02492      5.95196      1.93377        -0.019769     -0.050659      0.071515
Ni	     16.90261     14.15630     -6.28024        -0.025227     -0.026520      0.048972
Ni	      8.45772      8.02255     -0.13974        -0.029168     -0.011908      0.043576
Ni	      8.48353     12.09666     -4.21950        -0.028102     -0.030025      0.094872
Ni	      2.17470      4.07176     -2.09156        -0.095099      0.011251     -0.012559
Ni	      2.10345      8.15470     -6.19063        -0.018900      0.002057      0.003084
Ni	     10.59153      6.09311     -4.12659        -0.028139      0.007289     -0.009600
Ni	     10.56625     10.18978     -8.23217        -0.010219      0.033513      0.031427
Ni	      2.13376      6.02002     -0.12162        -0.021261      0.014725     -0.009907
Ni	      2.10491     10.12179     -4.21875        -0.025435     -0.006880     -0.004690
Ni	     10.59570      8.04911     -2.14014        -0.044402     -0.000999      0.023253
Ni	     10.55112     12.16649     -6.26960        -0.006994     -0.005846     -0.048037
Ni	      2.12022      7.99249      1.85959        -0.007118     -0.000075      0.012074
Ni	      2.10460     12.09142     -2.24815        -0.016489      0.001547      0.006678
Ni	     10.59039     10.01643     -0.17349        -0.023993     -0.019504      0.005898
Ni	     10.56642     14.13443     -4.30503        -0.019017      0.004726     -0.023708
Ni	      4.20800     10.01682      1.78749        -0.000548      0.006714     -0.038643
Ni	      4.21020     14.08024     -2.27458         0.021995     -0.025667      0.009776
Ni	     12.69208      6.12192     -6.12793        -0.018400     -0.013941      0.003963
Ni	     12.64428     16.14743     -4.34330         0.009168     -0.011178     -0.034417
Ni	      4.23002      6.06287     -2.12903         0.056898     -0.007800     -0.001067
Ni	      4.18583     10.14809     -6.21423         0.094027      0.021544     -0.010023
Ni	     12.68246      8.09697     -4.15994        -0.013185      0.010369     -0.025719
Ni	     12.66687     12.18813     -8.26258         0.048559     -0.003996      0.004100
Ni	      4.20424      8.05275     -0.17297         0.001133      0.036211     -0.002157
Ni	      4.21322     12.11690     -4.23666         0.024587     -0.000658      0.025696
Ni	     12.66488     10.05330     -2.16974         0.017478      0.004611      0.034473
Ni	     12.64509     14.18058     -6.31348         0.005129      0.029900      0.006604
Ni	      6.31107      6.12336     -4.16257         0.021693      0.056249     -0.044566
Ni	      6.31817     10.22405     -8.24877         0.025431      0.024457     -0.043835
Ni	     14.81089      8.11171     -6.14728         0.069122      0.041843     -0.091642
Ni	     14.74708     12.25064    -10.29703         0.032110      0.045666     -0.028152
Ni	      6.31326      8.09549     -2.18569         0.018430      0.040405     -0.054742
Ni	      6.31995     12.18096     -6.28769         0.022355      0.052210     -0.017763
Ni	     14.78295     10.09991     -4.22363         0.029315      0.077138      0.007544
Ni	     14.74600     14.22431     -8.32191         0.034146      0.025987     -0.046699
Ni	      6.32584     10.08800     -0.24210         0.007025      0.060914     -0.061021
Ni	      6.30540     14.17080     -4.33070         0.039141      0.059073     -0.049330
Ni	     14.78237     12.08627     -2.25174         0.026854      0.030058     -0.057628
Ni	     14.75932     16.21306     -6.37491         0.022908      0.052361     -0.048371
O	      4.24645      4.19161     -2.25969         0.071489     -0.149888      0.155914
O	      4.22343      8.25636     -6.27626         0.066306     -0.144220      0.138928
O	     12.70493      6.20640     -4.23132         0.068550     -0.141825      0.146301
O	     12.68459     10.31840     -8.38677         0.069998     -0.120551      0.148322
O	      4.24321      6.18919     -0.26009         0.059668     -0.162921      0.158533
O	      4.22450     10.20594     -4.32199         0.062482     -0.132285      0.146036
O	     12.69063      8.14176     -2.24241         0.082808     -0.141264      0.127988
O	     12.67892     12.30934     -6.39371         0.060170     -0.149129      0.128646
O	      4.21474      8.11723      1.73242         0.078351     -0.127337      0.120185
O	      4.21731     12.18678     -2.34391         0.073291     -0.139522      0.138321
O	     12.68804     10.12078     -0.27505         0.083500     -0.131375      0.134778
O	     12.66432     14.24737     -4.41368         0.082486     -0.129396      0.122514
O	      6.31226     10.14575      1.65127         0.025554     -0.126665      0.138542
O	      6.31920     14.23037     -2.43411         0.019162     -0.141437      0.138923
O	     14.81087     12.12889     -0.33885         0.007707     -0.166135      0.143259
O	     14.76159     16.27232     -4.47912         0.011166     -0.142701      0.128656
O	      6.14494      6.15419     -2.22204         0.130709     -0.098200      0.099849
O	      6.49133     10.25105     -6.30381        -0.140142     -0.117175      0.114374
O	     14.81161      8.18269     -4.27138         0.004540     -0.151886      0.174936
O	     14.58943     12.28511     -8.35491         0.138112     -0.112197      0.112397
O	      6.31081      8.19169     -0.30127         0.022627     -0.132224      0.133653
O	      6.32812     12.26443     -4.38430         0.017156     -0.133502      0.141305
O	     14.79449     10.18776     -2.31631         0.029074     -0.135723      0.129975
O	     14.75910     14.31641     -6.43783         0.018895     -0.124832      0.145843
O	      4.19143      6.01001     -4.01270        -0.064345      0.149089     -0.161894
O	      4.22757     10.03619     -8.09495        -0.063120      0.150279     -0.143056
O	     12.92371      8.00659     -6.07036        -0.152858      0.105237     -0.100771
O	     12.64228     12.14077    -10.14820        -0.060580      0.136496     -0.129922
O	      4.19099      7.94246     -2.07501        -0.072171      0.165629     -0.149199
O	      4.22871     12.02627     -6.09806        -0.058663      0.144811     -0.145340
O	     12.67812      9.96789     -4.03169        -0.058676      0.142919     -0.153994
O	     12.63532     14.07247     -8.21252        -0.058733      0.121068     -0.140683
O	      4.17894      9.95037     -0.11025        -0.059822      0.135803     -0.143064
O	      4.19654     14.03196     -4.18651        -0.066662      0.126965     -0.133444
O	     12.68090     11.97020     -2.10652        -0.061409      0.117190     -0.132867
O	     12.63513     16.08272     -6.24474        -0.061252      0.129463     -0.136013
O	      6.33552      1.96182     -1.95137         0.003558      0.140782     -0.136394
O	      6.32695      6.06610     -6.05905         0.002071      0.138282     -0.148090
O	     14.80205      3.99795     -3.99044         0.006496      0.132800     -0.146341
O	     14.79961      8.06296     -8.02522        -0.006805      0.157636     -0.170654
O	      6.33811      3.86882      0.07349         0.007378      0.194006     -0.189571
O	      6.31432      7.99882     -4.05920         0.000642      0.152544     -0.161402
O	     14.78754      5.93399     -1.99636         0.005086      0.145571     -0.149185
O	     14.80222      9.95323     -6.06183         0.000307      0.207645     -0.210426
O	      6.33502      5.88749      1.98397         0.003590      0.130784     -0.133438
O	      6.33581      9.99480     -2.12921         0.004790      0.142372     -0.137601
O	     14.80103      7.92547     -0.05675         0.012593      0.143011     -0.124735
O	     14.77924     12.00591     -4.15037         0.015472      0.126683     -0.121287
O	      0.00129      2.12603     -0.13425        -0.009272     -0.151836      0.134161
O	     16.88629     10.29508     -8.37609        -0.005378     -0.161587      0.165160
O	      8.43512      4.16572     -2.23664        -0.004939     -0.163053      0.157579
O	      8.33539      8.30251     -6.29653        -0.003870     -0.171599      0.183992
O	      0.01319      4.06112      1.84398         0.006128     -0.136989      0.147475
O	     16.88537     12.29801     -6.36346        -0.002919     -0.157713      0.156381
O	      8.43582      6.16479     -0.22751        -0.004723     -0.154877      0.158417
O	      8.45734     10.20981     -4.35861         0.004342     -0.151463      0.165751
O	      0.02076      6.03740      3.82263         0.007333     -0.142591      0.146368
O	     16.89544     14.22050     -4.38084        -0.007825     -0.135210      0.133754
O	      8.45123      8.09007      1.75895        -0.008888     -0.133279      0.128733
O	      8.46352     12.17824     -2.32612         0.004210     -0.139382      0.135104
O	      2.02229      4.14516     -0.22145         0.061554     -0.140317      0.146357
O	      2.08159      8.22222     -4.28950         0.071874     -0.131185      0.126300
O	     10.56696      6.14499     -2.22250         0.062506     -0.120453      0.128895
O	     10.33091     10.28711     -6.33476         0.184563     -0.102400      0.097564
O	      2.13908      6.09154      1.80087         0.068447     -0.123339      0.137090
O	      2.09757     10.18939     -2.32453         0.048347     -0.125598      0.136787
O	     10.57140      8.11464     -0.24534         0.057965     -0.117715      0.133829
O	     10.57135     12.22423     -4.36587         0.087910     -0.124108      0.151944
O	      2.10146      2.18917     -2.14288         0.073545     -0.148948      0.119505
O	      2.09682      6.26093     -6.26173         0.049075     -0.128814      0.131890
O	     10.57961      4.19885     -4.18214         0.051076     -0.131677      0.119582
O	     10.56680     14.21478     -2.43864         0.080856     -0.159891      0.143581
O	     16.75787      7.98628     -6.06906         0.126384      0.116135     -0.097488
O	     16.87442     12.12792    -10.13448        -0.010477      0.121959     -0.131760
O	      8.42738      5.99750     -3.99899         0.008100      0.127270     -0.135431
O	      8.44608     10.04338     -8.10611        -0.004612      0.158235     -0.166693
O	      0.00602      5.89187      0.06213        -0.007646      0.142246     -0.154000
O	     16.87419     14.06163     -8.19309        -0.008644      0.130784     -0.126059
O	      8.42378      7.92721     -2.05029         0.009561      0.138294     -0.128361
O	      8.45213     12.04439     -6.09963        -0.014019      0.156428     -0.164671
O	      0.00322      7.85776      1.98578        -0.011721      0.117324     -0.122809
O	     -0.01961     11.99317     -2.15084        -0.020431      0.110194     -0.122206
O	      8.46268      9.93096     -0.08453        -0.016853      0.110071     -0.124380
O	      8.46174     14.00474     -4.16186        -0.013898      0.113353     -0.111788
O	      2.09221      3.98629     -3.98210        -0.070708      0.138820     -0.138929
O	      2.10524      8.08536     -8.08361        -0.089254      0.135870     -0.137606
O	     10.59928     11.88671     -0.10265        -0.084452      0.143259     -0.129130
O	     10.55409     10.13812    -10.12539        -0.069216      0.136246     -0.148107
O	      2.34810      5.97369     -2.05071        -0.156178      0.119846     -0.116271
O	      2.10704     10.05364     -6.11940        -0.089313      0.132332     -0.138700
O	     10.59935      7.97921     -4.00854        -0.079324      0.133633     -0.145070
O	     10.78436     12.10156     -8.18570        -0.162247      0.089908     -0.101395
O	      2.10229      7.90507     -0.04658        -0.078143      0.142274     -0.129820
O	      2.10780     12.01375     -4.14471        -0.089964      0.138436     -0.135222
O	     10.58107      9.94894     -2.07417        -0.093714      0.126504     -0.129807
O	     10.55172     14.05240     -6.20306        -0.068085      0.151204     -0.136063
