# total energy = -902.17929255 eV
 
CRYSTAL
PRIMVEC
0.001761 5.911626 5.912095 
16.917644 4.080969 -4.076317 
-0.029524 8.207591 -8.207674 
PRIMCOORD
187 1
Li	      8.52111      2.28394     -1.97209         0.004066      0.013603      0.030206
Li	      8.43034     12.09605     -0.27812         0.004505      0.022575     -0.022053
Li	     16.89757     10.03168      1.78553         0.001565      0.034116     -0.015737
Li	     16.75812      8.43866     -8.10023        -0.012027      0.024319      0.031515
Li	      8.42445      8.15082     -4.20681         0.008521      0.018537     -0.024696
Li	     16.90175      6.09019     -2.14617        -0.009073      0.025000     -0.027032
Li	      8.45485      5.95381      1.78357         0.003144      0.019597     -0.007935
Li	      8.42566     10.12833     -2.23511         0.009839      0.025260     -0.022417
Li	     16.89610      8.06773     -0.17033         0.000821      0.018939     -0.034701
Li	     16.84289     12.10818     -4.34341        -0.001056      0.014290     -0.003364
Li	      2.15605      2.05516     -0.03992         0.005212      0.014214      0.000604
Li	      2.07559      6.11999     -4.11342        -0.014131      0.007484     -0.022894
Li	     10.54195      8.15071     -6.19418         0.022183     -0.009124      0.006190
Li	      2.15757      3.98083      1.88758         0.000285     -0.001253     -0.014084
Li	      2.00340      8.04917     -2.17248         0.014341      0.007513      0.006951
Li	     10.46742      5.86910     -0.21792         0.016334      0.001811      0.000861
Li	     10.53997     10.13324     -4.19936         0.024898     -0.009875      0.001173
Li	      2.11689      5.95418      3.90125         0.006990      0.000348     -0.002536
Li	      2.02944     10.05595     -0.19555        -0.004468     -0.008869      0.013980
Li	     10.51946      8.07139      1.93863        -0.002122     -0.007057      0.003298
Li	     10.54821     12.09989     -2.24324         0.016830     -0.001042      0.003546
Li	      4.25216      2.10507     -1.95498         0.004830     -0.007810      0.003803
Li	      4.22252     12.06803     -0.26882        -0.003242      0.005849     -0.007003
Li	     12.63161      4.08595     -4.04355        -0.017943      0.017301     -0.016485
Li	     12.76401      8.22962     -8.18691         0.005169      0.000158      0.012506
Li	      4.21672      8.13549     -4.18606        -0.015325      0.008530     -0.011049
Li	     12.61999      6.00159     -2.10937        -0.015998      0.017357     -0.011838
Li	     12.69776     10.14645     -6.25878         0.052495     -0.024314      0.024341
Li	      4.26388      5.89579      1.83168        -0.001198     -0.002478      0.002593
Li	      4.21073     10.11625     -2.21174        -0.008308      0.005659     -0.002943
Li	     12.66825      8.04415     -0.13890        -0.024079     -0.001486     -0.007620
Li	     12.73490     12.13857     -4.23517         0.019454     -0.012288     -0.001385
Li	      6.32271      4.01030     -1.92760         0.009736     -0.019558      0.031705
Li	      6.34985      8.12711     -6.15342         0.000811      0.000011      0.008598
Li	     14.80468      6.04513     -4.08162         0.003952      0.012311      0.012650
Li	      6.39047      5.87455     -0.06220        -0.001167     -0.036085      0.019696
Li	      6.34899     10.09438     -4.17865        -0.003380     -0.007343     -0.001761
Li	     14.80709      8.02672     -2.10140         0.001746     -0.011789     -0.010847
Li	     14.91465     11.90958     -6.31488        -0.007036     -0.041749     -0.002477
Li	      6.38691      7.94045      1.92309         0.000260     -0.025144      0.037506
Li	      6.35785     12.07109     -2.21437        -0.004782     -0.002725     -0.003644
Li	     14.82393     10.00305     -0.14578        -0.008693     -0.005787     -0.002822
Li	     14.83734     14.16568     -4.16917        -0.010336     -0.041971      0.024694
Ni	      0.02006      7.92983      3.89092        -0.041282     -0.058616      0.076301
Ni	     -0.01399      6.15299     -6.15254        -0.048103     -0.045438      0.013475
Ni	      8.45201      4.09581     -4.08995        -0.019155     -0.055250      0.003955
Ni	      8.46922     14.07170     -2.25350        -0.057560     -0.065484      0.074427
Ni	     -0.00228      4.00978     -0.06936        -0.074777     -0.082883      0.085730
Ni	      0.00986      8.09246     -4.16557        -0.114446     -0.035415      0.076665
Ni	      8.50705      6.02811     -2.10062        -0.112414     -0.027764      0.074463
Ni	      8.46206     10.14651     -6.20252        -0.021097     -0.058144      0.043424
Ni	      0.02104      5.95463      1.92787        -0.054970     -0.088568      0.064105
Ni	     16.88645     14.17532     -6.28107        -0.039315     -0.035397      0.036906
Ni	      8.47141      8.03294     -0.14258        -0.048352     -0.025218      0.040105
Ni	      8.46139     12.09813     -4.21478        -0.030256     -0.080381      0.064398
Ni	      2.13035      4.06515     -2.08756        -0.034182      0.023986      0.038920
Ni	      2.10483      8.17004     -6.19617        -0.025269     -0.004192     -0.006175
Ni	     10.56996      6.11065     -4.13702        -0.021859      0.000166      0.010876
Ni	     10.55930     10.21216     -8.24201        -0.045089      0.028922     -0.001979
Ni	      2.13338      6.02753     -0.12101        -0.042880     -0.034400     -0.025226
Ni	      2.10263     10.13770     -4.22476        -0.041178      0.008329     -0.000429
Ni	     10.56962      8.09485     -2.17156        -0.016907      0.027201     -0.026323
Ni	     10.59140     12.17277     -6.25256        -0.049354     -0.018183     -0.015732
Ni	      2.12389      7.99467      1.86037        -0.030074     -0.016904      0.022538
Ni	      2.10345     12.10673     -2.25602        -0.024678      0.004579     -0.006259
Ni	     10.56393     10.06074     -0.21060        -0.014808      0.019114     -0.038513
Ni	     10.56267     14.11801     -4.27244        -0.024101     -0.033368      0.016396
Ni	      4.20206     10.02521      1.79177         0.024567      0.011720     -0.024380
Ni	      4.20455     14.09745     -2.28015         0.037359     -0.019888      0.008117
Ni	     12.66429      6.13993     -6.13568         0.032843     -0.001099      0.001985
Ni	     12.64245     10.25613    -10.23083         0.030735     -0.025971     -0.009349
Ni	      4.21919      6.07416     -2.12661         0.032747     -0.002814     -0.000012
Ni	      4.20047     10.16917     -6.22617         0.031899      0.029470     -0.018288
Ni	     12.66714      8.10461     -4.16159         0.053345      0.014482     -0.005256
Ni	     12.66846     12.20999     -8.25995         0.113106      0.008056     -0.011604
Ni	      4.20214      8.06124     -0.16962         0.020669      0.027269     -0.007518
Ni	      4.20295     12.13423     -4.24223         0.031193     -0.006818      0.016041
Ni	     12.66581     10.08110     -2.19203         0.035777     -0.009569     -0.006474
Ni	     12.64963     14.19154     -6.29620         0.031498      0.013235      0.011320
Ni	      6.29712      6.13311     -4.16340         0.014392      0.064673     -0.041540
Ni	      6.30982     10.23998     -8.24839         0.049342      0.058582     -0.056687
Ni	     14.78638      8.16772     -6.18372         0.040424      0.055646     -0.034007
Ni	     14.74678     12.26305    -10.29529         0.057569      0.074179     -0.047102
Ni	      6.30028      8.10457     -2.18574         0.027962      0.036774     -0.071489
Ni	      6.30913     12.18892     -6.29311         0.052550      0.067595     -0.055521
Ni	     14.78013     10.12018     -4.20045         0.051707      0.006983     -0.015414
Ni	     14.73130     14.25369     -8.33047         0.037704      0.072225     -0.074704
Ni	      6.31279     10.09650     -0.24504         0.019352      0.054042     -0.051697
Ni	      6.31353     14.17942     -4.32218         0.054306      0.049337     -0.048612
Ni	     14.79575     12.09090     -2.24226         0.038330      0.016840     -0.041981
Ni	     14.74981     16.24107     -6.38626         0.032540      0.066124     -0.068413
O	      4.24080      4.20313     -2.25629         0.084050     -0.141024      0.148414
O	      4.20975      8.26757     -6.28669         0.068204     -0.130131      0.138873
O	     12.67029      6.20749     -4.23432         0.068524     -0.145540      0.136631
O	     12.59657     10.33850     -8.34589         0.065433     -0.149128      0.134921
O	      4.24159      6.19705     -0.25814         0.074634     -0.145591      0.147047
O	      4.20579     10.22772     -4.32267         0.086464     -0.129168      0.127955
O	     12.67184      8.18147     -2.26714         0.071924     -0.132945      0.159522
O	     12.69868     12.29407     -6.38043         0.079468     -0.130143      0.140911
O	      4.22047      8.11949      1.73336         0.072558     -0.115888      0.104283
O	      4.20610     12.19904     -2.34578         0.084202     -0.135782      0.135709
O	     12.65819     10.15547     -0.29482         0.085236     -0.146505      0.149762
O	     12.66178     14.26333     -4.39425         0.078058     -0.123315      0.125757
O	      6.30094     10.15967      1.64202         0.016498     -0.135744      0.139549
O	      6.32463     14.23815     -2.41503         0.018866     -0.140270      0.123989
O	     14.78846      6.25471     -6.24266         0.033300     -0.152628      0.137451
O	     14.76595     16.29463     -4.51417         0.015759     -0.134878      0.138871
O	      6.12713      6.17577     -2.22539         0.137400     -0.085664      0.086671
O	      6.32557     10.28270     -6.34245         0.018664     -0.147173      0.143814
O	     14.80064      8.19888     -4.26292        -0.047233     -0.110132      0.089295
O	     14.60370     12.35706     -8.36370         0.164506     -0.087200      0.103547
O	      6.30979      8.19801     -0.29881         0.016010     -0.142984      0.141128
O	      6.31679     12.26614     -4.37840         0.040664     -0.106481      0.130281
O	     14.78737     10.18522     -2.28751         0.050783     -0.133855      0.146423
O	     14.74866     14.34478     -6.43458         0.012840     -0.113743      0.129266
O	      4.18326      6.01916     -4.01304        -0.069320      0.144047     -0.141670
O	      4.20425     10.04608     -8.11723        -0.074419      0.136926     -0.129736
O	     12.66821      8.03112     -6.05844        -0.081103      0.108164     -0.139617
O	     12.70465     12.13891    -10.13537        -0.053248      0.141378     -0.148231
O	      4.18397      7.95700     -2.07004        -0.070915      0.151286     -0.144295
O	      4.20144     12.05902     -6.10189        -0.071547      0.130979     -0.138237
O	     12.66946      9.99981     -4.08237        -0.075496      0.148301     -0.125423
O	     12.63339     14.09510     -8.19653        -0.085906      0.145469     -0.119787
O	      4.18259      9.96058     -0.10587        -0.064005      0.128431     -0.138023
O	      4.20611     14.04328     -4.18733        -0.055410      0.117647     -0.131399
O	     12.67642     11.98108     -2.12463        -0.045566      0.117281     -0.130497
O	     12.62514     16.09542     -6.22597        -0.067893      0.128096     -0.117875
O	      6.33892      1.95211     -1.93392         0.002144      0.123999     -0.150783
O	      6.31709      6.07432     -6.06171        -0.004547      0.127254     -0.125376
O	     14.78556      4.00781     -3.99189        -0.003363      0.129938     -0.121075
O	     14.78215     13.94471     -2.15902        -0.001776      0.156157     -0.145803
O	      6.34135      3.88099      0.06669         0.004714      0.157354     -0.170696
O	      6.30430      8.01263     -4.06807         0.008040      0.133967     -0.135317
O	     14.77041      5.93789     -2.00691         0.001947      0.140035     -0.144981
O	     14.66793     10.01595     -6.03119        -0.034420      0.155274     -0.192495
O	      6.34356      5.87848      1.99269         0.012334      0.156090     -0.129777
O	      6.32071      9.99967     -2.12884        -0.006590      0.124878     -0.135815
O	     14.78047      7.93704     -0.06739        -0.001848      0.128544     -0.118215
O	     14.78528     12.02225     -4.14272         0.002175      0.134752     -0.104782
O	      0.01109      2.11946     -0.13322         0.017464     -0.175318      0.149407
O	      0.10420      6.24860     -4.31438         0.053005     -0.161905      0.170952
O	      8.30554      4.19497     -2.25411        -0.055077     -0.168990      0.175153
O	      8.44882      8.25692     -6.27230        -0.006659     -0.136042      0.146243
O	      0.00720      4.06667      1.82333         0.017933     -0.154165      0.190140
O	     16.89461     12.31488     -6.36430         0.018757     -0.153522      0.143091
O	      8.44266      6.17232     -0.22701        -0.001006     -0.147610      0.153349
O	      8.44939     10.20563     -4.31017         0.004161     -0.137542      0.140505
O	      0.01304      6.03744      3.81865         0.019399     -0.143990      0.142732
O	     -0.01681     10.16589     -0.30653         0.005394     -0.122305      0.106485
O	      8.45455      8.10841      1.75384        -0.014271     -0.147193      0.135085
O	      8.43445     12.18276     -2.32577         0.007788     -0.140856      0.124430
O	      2.01893      4.14624     -0.20593         0.157472     -0.099939      0.101691
O	      2.09901      8.24617     -4.29587         0.059637     -0.122793      0.117118
O	     10.56371      6.23139     -2.24510         0.054956     -0.153144      0.131726
O	     10.59153     10.27826     -6.35524         0.037817     -0.141658      0.128582
O	      2.13134      6.09040      1.78915         0.080897     -0.111439      0.157548
O	      2.09329     10.20355     -2.32749         0.049119     -0.116350      0.129708
O	     10.56568      8.15452     -0.27155         0.049447     -0.098393      0.126273
O	     10.57615     12.21810     -4.34805         0.078890     -0.127460      0.130257
O	      2.13438      2.15305     -2.15206         0.072054     -0.157507      0.115944
O	      2.10907     12.18624     -0.36475         0.049256     -0.118737      0.125070
O	     10.55489     10.13606      1.65263         0.059392     -0.139640      0.153363
O	     10.56545     14.17995     -2.37339         0.084327     -0.093996      0.134855
O	      0.00592      3.89786     -1.96821         0.005988      0.115001     -0.163966
O	     16.87469     12.14489    -10.14452        -0.020126      0.147888     -0.130850
O	      8.41757      6.00675     -4.00036        -0.016718      0.144181     -0.141152
O	      8.47931     10.03920     -8.10481         0.003519      0.117837     -0.116748
O	      0.00077      5.90393      0.05060         0.021240      0.152106     -0.122884
O	     16.86261     14.07950     -8.19159        -0.009259      0.132793     -0.137345
O	      8.42564      7.94082     -2.05381        -0.034181      0.129205     -0.137449
O	      8.47162     12.03962     -6.08919        -0.006202      0.116253     -0.136853
O	      0.01313      7.85512      1.98698         0.007508      0.124134     -0.130960
O	     -0.01696     12.00565     -2.15820        -0.047740      0.124008     -0.129184
O	      8.45912      9.94790     -0.10064        -0.061753      0.116992     -0.120563
O	      8.45638     13.99847     -4.15943         0.002309      0.145239     -0.147555
O	      2.12192      3.98278     -3.97410        -0.081175      0.129053     -0.152810
O	      2.10657      8.09591     -8.09242        -0.097203      0.118981     -0.145628
O	     10.56534      6.05228     -6.03643        -0.099153      0.136996     -0.139747
O	     10.54542     15.98358     -4.19418        -0.081280      0.140845     -0.152903
O	      2.34144      5.98620     -2.03871        -0.128697      0.108796     -0.116134
O	      2.09651     10.06560     -6.12383        -0.087307      0.119607     -0.125639
O	     10.57946      8.01137     -4.07457        -0.129501      0.122722     -0.133946
O	     10.79453     12.14330     -8.13062        -0.226584      0.063374     -0.110391
O	      2.11205      7.91735     -0.04108        -0.086163      0.153551     -0.127864
O	      2.10109     12.03248     -4.15081        -0.088668      0.141055     -0.129579
O	     10.57154      9.99164     -2.10605        -0.110889      0.137539     -0.132281
O	     10.56729     14.06000     -6.17599        -0.082343      0.137201     -0.095994
