# total energy = -906.61067279 eV
 
CRYSTAL
PRIMVEC
0.000075 5.915258 5.913862 
17.027604 4.062439 -4.061490 
-0.027802 8.171193 -8.168766 
PRIMCOORD
188 1
Li	      8.48710      2.10907     -2.09422         0.002828      0.003531     -0.008379
Li	     17.01193      9.99190      1.83754        -0.005848      0.015656     -0.016330
Li	     16.99635     14.09940     -2.27083        -0.000846      0.014171     -0.012656
Li	      8.48661      4.06944     -0.14205         0.001861      0.007644      0.003677
Li	     17.01056      6.04850     -2.10046        -0.006566      0.018554     -0.019250
Li	     16.99029     10.15717     -6.20858        -0.003237      0.015128     -0.018809
Li	      8.48585      6.05781      1.83481         0.001394     -0.001771     -0.004607
Li	      8.61375     10.24628     -2.14862         0.007586      0.039447     -0.024996
Li	     17.00743      8.02563     -0.13696        -0.002847      0.015319     -0.013701
Li	     16.99222     12.13464     -4.24636        -0.002398      0.017062     -0.016037
Li	      2.14438      1.99430     -0.02063         0.000945      0.005120      0.000448
Li	      2.10697      6.08873     -4.11219         0.006807     -0.002427      0.003577
Li	     10.59200      4.05465     -2.08105         0.009807     -0.008780      0.016281
Li	      2.11990      3.97330      1.94709         0.002926     -0.001064      0.001330
Li	      2.11971      8.06539     -2.14421         0.001692     -0.004335      0.006633
Li	     10.57674      6.01814     -0.09605         0.013420     -0.010904     -0.041325
Li	     10.47106      9.97945     -4.23829         0.031433     -0.027846      0.003107
Li	      2.12302      5.94407      3.91311         0.008486     -0.009270     -0.001085
Li	      2.12049     10.03269     -0.17822         0.001846     -0.003952      0.004378
Li	     10.57339      7.98552      1.86733         0.018867      0.034464      0.003604
Li	      4.30587      2.05203     -2.04595         0.000121      0.005694     -0.007001
Li	      4.25661      6.11741     -6.10236        -0.001981     -0.003432     -0.004367
Li	     12.75054      9.93926      1.87814        -0.003848     -0.033348      0.001667
Li	     12.46717     13.95185     -2.13916        -0.019312     -0.016235      0.014948
Li	      4.30683      4.01980     -0.07954        -0.002997      0.005740     -0.007351
Li	      4.26681      8.08635     -4.14289        -0.002662      0.000021     -0.001421
Li	     12.75554      6.00891     -2.05729        -0.015198     -0.002191      0.037726
Li	     12.62258     10.09063     -6.18411        -0.010589      0.001041      0.002243
Li	      4.31150      5.99458      1.89641        -0.002280      0.007318     -0.006881
Li	      4.32148     10.06186     -2.17874        -0.006583      0.005238     -0.003229
Li	     12.74683      7.97390     -0.08308        -0.009777     -0.007215      0.010215
Li	     12.69752     12.11112     -4.17104         0.002557      0.009698     -0.017421
Li	      6.42679      4.03487     -2.06520        -0.006713     -0.023046      0.024771
Li	      6.56428      7.97549     -6.00769         0.020644      0.011752     -0.011876
Li	     14.90919      6.00493     -4.03564         0.019464     -0.029287      0.025503
Li	     14.85037     10.10662     -8.14550        -0.001275     -0.020616      0.025522
Li	      6.43535      6.00307     -0.08948        -0.006253     -0.017127      0.021074
Li	      6.55629      9.96618     -4.11464        -0.003113     -0.007470      0.001423
Li	     14.89682      7.99167     -2.06633        -0.005861     -0.019920      0.024579
Li	     14.87494     12.09388     -6.17271         0.001901     -0.018768      0.015563
Li	      6.43393      7.98009      1.88580        -0.001986     -0.023361      0.016453
Li	      6.45789     12.02916     -2.09481         0.010017      0.001042      0.010745
Li	     14.89713      9.95644     -0.10285        -0.005736     -0.024035      0.024411
Li	     14.85302     14.06351     -4.19308         0.003140     -0.021434      0.019919
Ni	      0.02383      2.00911     -2.00301        -0.109503     -0.055131      0.052642
Ni	     -0.00314      6.10296     -6.09993        -0.036634     -0.054012      0.050303
Ni	      8.53414      9.97450      1.85524         0.018025     -0.147393      0.021240
Ni	      8.54955     14.07089     -2.25631        -0.024604     -0.035266      0.046351
Ni	      0.03096      3.97841     -0.03268        -0.115914     -0.048804      0.051708
Ni	     -0.00295      8.07447     -4.12853        -0.044567     -0.055255      0.058084
Ni	      8.53199      6.02542     -2.08398         0.029904     -0.029560      0.154420
Ni	      8.52532     10.14104     -6.20703        -0.024412     -0.000646      0.051002
Ni	     17.02027     10.02152     -2.13412        -0.035745     -0.058511      0.057401
Ni	     -0.00432     10.04762     -2.15897        -0.038314     -0.054366      0.055104
Ni	      8.53856      7.98984     -0.10245        -0.031457     -0.079721      0.071243
Ni	      8.50027     12.15023     -4.26397        -0.034162     -0.026503     -0.059426
Ni	      2.13593      4.04004     -2.06482        -0.040218     -0.016639      0.008049
Ni	      2.13069      8.13369     -6.15808        -0.038715     -0.010954      0.002509
Ni	     10.65293      6.10278     -4.13344        -0.454829      0.414973     -0.300758
Ni	     10.59857     10.21703     -8.23206        -0.011630      0.042157      0.021109
Ni	      2.13211      6.01359     -0.09518        -0.035846     -0.009054      0.011173
Ni	      2.12855     10.10483     -4.18708        -0.029118      0.003134      0.004537
Ni	     10.65442      8.02865     -2.12061        -0.006643     -0.006026      0.020757
Ni	     10.57864     12.18141     -6.26504        -0.015392      0.034868      0.014511
Ni	      2.13059      7.98391      1.87514        -0.030247     -0.004102      0.013078
Ni	      2.12847     12.07656     -2.21544        -0.023219     -0.005329      0.003187
Ni	     10.65397     10.02129     -0.16718        -0.013212      0.029197     -0.020062
Ni	     10.58384     14.15458     -4.28918        -0.008441     -0.054422     -0.048907
Ni	      4.23892      4.07833     -4.07632         0.020032     -0.002874     -0.000789
Ni	      4.24696      8.16606     -8.16192         0.028816     -0.009069     -0.013166
Ni	     12.76208      6.10497     -6.09896         0.007039      0.032467     -0.215675
Ni	     12.71148     16.10892     -4.27706         0.041511     -0.011178     -0.003019
Ni	      4.24090      6.05160     -2.10363         0.020149      0.005098      0.007300
Ni	      4.24956     10.13600     -6.18778         0.034506      0.018923      0.003629
Ni	     12.75762      8.08124     -4.13279         0.044755      0.192042     -0.026235
Ni	     12.71279     12.17341     -8.22051         0.024198      0.011003      0.021536
Ni	      4.23953      8.02270     -0.13368         0.024500     -0.008601      0.003118
Ni	      4.21436     12.10418     -4.21516         0.119848      0.017146     -0.018535
Ni	     12.71503     10.06338     -2.16697         0.035914      0.014534     -0.016808
Ni	     12.70555     14.13955     -6.24652         0.021098     -0.004454     -0.011220
Ni	      6.40237      6.12161     -4.14658        -0.055883      0.060831     -0.067816
Ni	      6.35437     10.20579     -8.23304         0.044452      0.045542     -0.043074
Ni	     14.83668      8.12598     -6.15137         0.053895      0.054170     -0.026375
Ni	     14.84945     12.20613    -10.23070         0.036677      0.034142     -0.035009
Ni	      6.40003      8.08466     -2.17390         0.018832      0.054115     -0.027498
Ni	      6.36976     12.17385     -6.26586         0.050001      0.074410     -0.017928
Ni	     14.84308     10.11392     -4.19077         0.031270      0.027089     -0.068565
Ni	     14.85093     14.18116     -8.26169         0.021346      0.048736     -0.033746
Ni	      6.39324     10.06445     -0.19351         0.020836      0.035929     -0.053558
Ni	      6.37131     14.15397     -4.28554         0.024174      0.016157     -0.069167
Ni	     14.85948     12.07457     -2.21636         0.044647      0.045796     -0.041641
Ni	     14.85152     16.15142     -6.28997         0.025106      0.034158     -0.044527
O	      4.23038      4.14654     -2.17128         0.066837     -0.115603      0.115184
O	      4.21695      8.24360     -6.26937         0.060937     -0.120322      0.132632
O	     12.81644      6.20691     -4.22169        -0.160091     -0.210612      0.214944
O	     12.72470     10.28313     -8.30029         0.059974     -0.117012      0.122563
O	      4.23799      6.12023     -0.20460         0.067717     -0.111537      0.113627
O	      4.23562     10.22014     -4.29216         0.067776     -0.132377      0.113257
O	     12.80351      8.15711     -2.25622         0.064937     -0.130358      0.146539
O	     12.67233     12.24253     -6.29682         0.128486     -0.127353      0.105100
O	      4.23619      8.09435      1.76809         0.063395     -0.119209      0.118505
O	      4.24229     12.18222     -2.33075         0.066154     -0.118361      0.128369
O	     12.80585     10.14401     -0.26890         0.071495     -0.134868      0.145800
O	     12.69112     14.19020     -4.34879         0.082564     -0.116382      0.130114
O	      6.37152      4.20970     -4.20335         0.023490     -0.106541      0.126689
O	      6.35315     14.22497     -2.39434         0.010398     -0.106839      0.109804
O	     14.73164      6.20846     -6.18899         0.157009     -0.121061      0.120461
O	     14.86703     16.21287     -4.38483         0.010074     -0.115039      0.123041
O	      6.37371      6.17827     -2.23435         0.022413     -0.122250      0.108657
O	      6.36768     10.28156     -6.33100        -0.006560     -0.133070      0.105763
O	     14.70826      8.18972     -4.22957         0.162217     -0.113349      0.104923
O	     14.86181     12.27527     -8.32041         0.019692     -0.115764      0.109224
O	      6.37697      8.15143     -0.26201         0.009877     -0.104064      0.106623
O	      6.55676     12.22508     -4.34854        -0.143950     -0.087356      0.115174
O	     14.87587     10.18453     -2.29695        -0.001017     -0.116714      0.124622
O	     14.85950     14.24272     -6.35462         0.023749     -0.105957      0.109543
O	      4.20031      5.96582     -3.99067        -0.043909      0.123957     -0.122691
O	      4.21982     10.06698     -8.08780        -0.074247      0.122810     -0.114580
O	     12.79240      7.98372     -6.00899        -0.087010      0.121072     -0.137845
O	     12.76096     12.10284    -10.13013        -0.063020      0.126267     -0.120128
O	      4.21895      7.95250     -2.02423        -0.046158      0.121576     -0.137716
O	      4.27867     12.04456     -6.10266        -0.102809      0.100012     -0.129352
O	     12.72405      9.96753     -4.06787        -0.030613      0.113347     -0.129324
O	     12.74411     14.06643     -8.14957        -0.045560      0.129544     -0.106960
O	      4.21606      9.91394     -0.06315        -0.048190      0.123211     -0.124081
O	      4.26169     13.99227     -4.15391        -0.083997      0.122522     -0.113565
O	     12.81256     11.95164     -2.06704        -0.048362      0.125763     -0.107981
O	     12.74767     16.03980     -6.17108        -0.045356      0.103354     -0.124127
O	      6.35147      1.95687     -1.95333        -0.011931      0.157331     -0.139450
O	      6.24068     11.93427     -0.10436        -0.011500      0.126750     -0.114973
O	     14.89343      3.95602     -3.95407         0.012962      0.144338     -0.133793
O	     14.90022     13.95054     -2.11992         0.008820      0.129080     -0.141679
O	      6.35620      3.92411      0.01588        -0.007073      0.128078     -0.176547
O	      6.24735      7.99292     -4.04346        -0.005615      0.120271     -0.136425
O	     14.89275      5.92718     -1.98404         0.010608      0.132429     -0.138967
O	     14.85852     10.01604     -6.07529         0.024271      0.120573     -0.125359
O	      6.38222      5.89237      1.99502        -0.017023      0.145112     -0.132592
O	      6.38079      9.97515     -2.08145        -0.004756      0.117190     -0.123223
O	     14.88326      7.90355     -0.01407         0.017016      0.126572     -0.129331
O	     14.87506     12.00134     -4.12187         0.018750      0.145112     -0.120875
O	     17.00359      6.15825     -4.18110        -0.002489     -0.132954      0.144017
O	     -0.01477      6.18246     -4.20785         0.008819     -0.121200      0.130051
O	      8.50955      4.13180     -2.16362        -0.014642     -0.104276      0.098555
O	      8.44979      8.31601     -6.34032        -0.033976     -0.217636      0.196995
O	     17.00795      8.12958     -2.21564        -0.002312     -0.126615      0.143213
O	     -0.00927      8.15639     -2.24077         0.007909     -0.129463      0.130865
O	      8.50766      6.09538     -0.18811        -0.024989     -0.098198      0.083946
O	      8.50637     10.30734     -4.30535        -0.002172     -0.140851      0.155371
O	     17.00831     10.10644     -0.24127         0.004252     -0.144375      0.126496
O	     -0.00822     10.13017     -0.26937         0.003716     -0.130898      0.124743
O	      8.50483      8.08044      1.79008        -0.020946     -0.080250      0.103800
O	      8.41603     12.20307     -2.44483        -0.035635     -0.174956      0.221906
O	      2.11009      4.10770     -0.16176         0.078895     -0.118864      0.117243
O	      2.11895      8.20278     -4.25828         0.062616     -0.120907      0.115591
O	     10.66763      6.14154     -2.22634         0.071257     -0.225786      0.884017
O	     10.60014     10.32450     -6.32819         0.069903     -0.164162      0.120022
O	      2.11831      6.08347      1.80357         0.064947     -0.116814      0.123743
O	      2.12012     10.18038     -2.29111         0.066368     -0.115966      0.119329
O	     10.66436      8.10451     -0.20556         0.075590     -0.087032      0.089440
O	     10.40731     12.21787     -4.37179         0.129655     -0.081338      0.122945
O	      2.10740      2.13844     -2.13311         0.085175     -0.122851      0.121086
O	      2.11949      6.23258     -6.22794         0.064554     -0.121218      0.122274
O	     10.67079      4.19658     -4.19058         0.058984     -0.856248      0.217468
O	     10.58181      8.36316     -8.36009         0.070352     -0.140065      0.161159
O	     16.97002      7.96707     -5.98554         0.015738      0.118353     -0.114199
O	     -0.01742      8.00790     -6.03252         0.004167      0.121242     -0.117105
O	      8.54447      5.92631     -3.95530         0.275322      0.151508     -0.146571
O	      8.49104     10.08437     -8.12205        -0.022286      0.135056     -0.148108
O	     16.98943      9.93636     -4.04223         0.002020      0.115519     -0.115813
O	     -0.01671      9.98407     -4.06422         0.001148      0.114873     -0.120359
O	      8.55007      7.92338     -1.98044        -0.020468      0.091148     -0.134277
O	      8.49823     12.06706     -6.17019        -0.069841      0.136893     -0.085546
O	     16.99482     11.92802     -2.04826        -0.001848      0.116405     -0.118307
O	     -0.01530     11.95383     -2.09607         0.000947      0.118447     -0.118237
O	      8.54469      9.87298     -0.04910        -0.016186      0.126026     -0.094113
O	      8.49401     14.04185     -4.18222        -0.038451      0.097297     -0.147914
O	      2.09932      3.96318     -3.95950        -0.065387      0.122300     -0.128867
O	      2.10881     13.97210     -2.14606        -0.062425      0.125427     -0.121975
O	     10.90008     11.90597     -0.08076         0.045074     -0.089560     -0.713332
O	     10.63727     10.14964    -10.13626        -0.094454      0.140106     -0.140534
O	      2.10132      5.93441     -1.98888        -0.063624      0.125588     -0.127083
O	      2.10971     10.03790     -6.08270        -0.059108      0.124152     -0.127920
O	     10.89738      7.99475     -4.01733        -0.081779      0.649762     -0.000204
O	     10.63328     12.11352     -8.16031        -0.085985      0.123773     -0.158215
O	      2.10090      7.91056     -0.02158        -0.071301      0.124582     -0.125711
O	      2.12244     12.01222     -4.12279        -0.077658      0.120525     -0.120341
O	     10.66795      9.88133     -2.04615        -0.099188      0.135954     -0.101520
O	     10.60535     14.07303     -6.18016        -0.065791      0.148720     -0.141181
