# total energy = -907.44065055 eV
 
CRYSTAL
PRIMVEC
0.000009 5.909664 5.909329 
17.067223 4.034307 -4.034166 
-0.053496 8.167902 -8.166937 
PRIMCOORD
188 1
Li	      8.50033      2.08201     -2.07161         0.009219      0.020076     -0.017870
Li	      8.76832      6.34363     -6.17810         0.005078      0.014909     -0.009881
Li	     17.05795      4.05395     -4.04732        -0.001507      0.014617     -0.011388
Li	     17.02301      8.14687     -8.13912         0.001105      0.019091     -0.013915
Li	      8.49551      4.03264     -0.10609         0.006624      0.016545     -0.018996
Li	     17.04670      6.02171     -2.08162        -0.008114      0.013600     -0.011123
Li	     17.01608     10.10659     -6.17391         0.003180      0.007673     -0.016029
Li	      8.50329      6.03221      1.85112         0.004111      0.015760     -0.012152
Li	      8.76955     10.12346     -2.40495         0.010440      0.010457     -0.004639
Li	     17.06165      7.98781     -0.11300        -0.001703      0.011085     -0.015258
Li	     17.03129     12.08062     -4.19666         0.014545      0.013792     -0.010550
Li	      2.13453      1.99299     -0.02507         0.000771      0.000794      0.002334
Li	      2.09748      6.08071     -4.11289         0.009277     -0.003263      0.000458
Li	     10.61455      4.05170     -2.06727         0.005332     -0.001834      0.008517
Li	      2.12924      3.96700      1.94640         0.002947     -0.001650      0.002532
Li	      2.09824      8.05249     -2.14004         0.005020     -0.001743      0.003285
Li	     10.60417      5.99507     -0.11672         0.009918     -0.004226      0.006844
Li	      2.12212      5.94003      3.91008         0.001362     -0.004057      0.004655
Li	      2.10316     10.02846     -0.17598         0.007765     -0.004113      0.006220
Li	     10.60519      7.98392      1.88372         0.006886     -0.008344      0.003331
Li	      4.29545      2.04923     -2.03679        -0.004582      0.007548     -0.002504
Li	      4.28330      6.13455     -6.11723        -0.006477      0.002392     -0.004573
Li	     12.79791      9.92696      1.89173        -0.002644      0.003091      0.001904
Li	     12.50646     13.90699     -2.09483        -0.010460      0.008892     -0.004431
Li	      4.30032      4.00633     -0.07511        -0.009476      0.006893     -0.009246
Li	      4.24188      8.08068     -4.14124         0.000227      0.002565     -0.003175
Li	     12.80290      5.99343     -2.06068         0.000623     -0.002659      0.000856
Li	     12.48114      9.95921     -6.01228         0.009710     -0.002321     -0.001015
Li	      4.28404      5.98753      1.89115        -0.008213      0.006136     -0.005595
Li	      4.28632     10.05901     -2.19188        -0.006221      0.005768     -0.005062
Li	     12.78844      7.96020     -0.07105        -0.005542     -0.003099      0.001818
Li	     12.51974     11.94765     -4.05889         0.012631      0.007846     -0.008713
Li	      6.43050      4.01847     -2.04531        -0.004749     -0.009389      0.016151
Li	      6.45255      8.07107     -6.04000         0.002536     -0.003412      0.003910
Li	     14.94073      5.99084     -4.03739        -0.002872     -0.031298      0.023509
Li	     14.83125     10.06769     -8.09622        -0.010861     -0.016752      0.024395
Li	      6.43597      5.98959     -0.08428        -0.006412     -0.013952      0.010331
Li	      6.46829      9.98425     -4.13955         0.013343     -0.003050      0.002660
Li	     14.93945      7.97482     -2.05044        -0.003932     -0.023354      0.026975
Li	     14.96929     12.03791     -6.12050         0.002272     -0.020316      0.018134
Li	      6.44372      7.97193      1.88151        -0.005256     -0.018007      0.014615
Li	      6.45242     12.01863     -2.16128        -0.013199     -0.012395      0.010659
Li	     15.03209      9.93782     -0.08488        -0.002853     -0.024169      0.024155
Li	     14.97781     14.00323     -4.15832        -0.003683     -0.019602      0.020929
Ni	     -0.00039      2.01646     -2.01346        -0.031634     -0.049886      0.053131
Ni	     -0.02672      6.09813     -6.09476        -0.036732     -0.061591      0.052547
Ni	      8.56861      4.04371     -4.03839        -0.037116     -0.067484      0.008285
Ni	      8.54093     14.05070     -2.23548        -0.015668     -0.041138     -0.040041
Ni	      0.03626      3.97750     -0.03684        -0.114713     -0.038799      0.047449
Ni	     -0.02936      8.06582     -4.12519        -0.027718     -0.051616      0.060433
Ni	      8.54240      6.01801     -2.07795        -0.029977     -0.040378      0.038274
Ni	      8.57327     10.08347     -6.14956        -0.072657     -0.016775      0.053817
Ni	      0.00030      5.95399      1.92398        -0.026996     -0.055593      0.048245
Ni	     -0.02392     10.03616     -2.15532        -0.035991     -0.057859      0.057612
Ni	      8.56857      7.98144     -0.10486        -0.037336     -0.011663      0.066896
Ni	      8.56061     12.09357     -4.20133        -0.040104      0.033481      0.021638
Ni	      2.13817      4.03802     -2.06732        -0.018787     -0.009300     -0.001692
Ni	      2.10952      8.12465     -6.15310        -0.023551     -0.009493      0.003010
Ni	     10.69258      6.04762     -4.07001        -0.047002      0.012284      0.036279
Ni	     10.59089     10.19421     -8.22423        -0.010749      0.026546     -0.022451
Ni	      2.13803      6.00823     -0.09800        -0.023284     -0.002901      0.004695
Ni	      2.10836     10.09516     -4.18360        -0.026591     -0.006722      0.000561
Ni	     10.69220      8.00966     -2.10675        -0.046708     -0.043185     -0.014483
Ni	     10.58964     12.15567     -6.24656         0.017681      0.020474     -0.046972
Ni	      2.13083      7.97959      1.87114        -0.002440      0.002654      0.008794
Ni	      2.10897     12.06575     -2.21463        -0.021169     -0.000906      0.011324
Ni	     10.68088      9.96516     -0.11532         0.010247     -0.012710      0.026337
Ni	     10.59063     14.12912     -4.27695        -0.000011      0.039979     -0.024399
Ni	      4.24297      4.07349     -4.07276         0.031306      0.004617     -0.008673
Ni	      4.22199      8.16489     -8.16198         0.000686     -0.004694     -0.008961
Ni	     12.72185      6.08652     -6.07807         0.040685     -0.022128     -0.028908
Ni	     12.69457     10.18767    -10.18035         0.030658     -0.025358     -0.006598
Ni	      4.24985      6.04263     -2.10154         0.018580      0.011541     -0.008996
Ni	      4.22251     10.13105     -6.19048        -0.000834      0.011104      0.005510
Ni	     12.78705      8.04463     -4.10450         0.090923      0.044751     -0.043420
Ni	     12.69062     12.15299     -8.21731         0.062771      0.015715      0.036002
Ni	      4.24281      8.01392     -0.13317         0.033909      0.009155     -0.005709
Ni	      4.21596     12.10444     -4.22321         0.013314      0.003814     -0.006149
Ni	     12.72102     10.01609     -2.14375         0.043854      0.027179      0.014071
Ni	     12.66512     14.11505     -6.23443         0.064004     -0.026541      0.013259
Ni	      6.39761      6.11551     -4.13845         0.047139      0.041927     -0.051725
Ni	      6.35388     10.19689     -8.22221         0.018947      0.046904     -0.056782
Ni	     14.87044      8.09070     -6.12842         0.068297      0.041889     -0.021527
Ni	     14.84941     12.17232    -10.20226         0.040390      0.030729     -0.049089
Ni	      6.39744      8.08034     -2.17534         0.046286      0.047094     -0.038944
Ni	      6.29335     12.17747     -6.26499         0.134711      0.034743     -0.036455
Ni	     14.87061     10.07033     -4.14756         0.075581      0.013976     -0.046460
Ni	     14.84886     14.14183     -8.22377         0.028903      0.049027     -0.041515
Ni	      6.34372     10.06044     -0.21043         0.106435      0.045822     -0.038422
Ni	      6.29206     14.15298     -4.30396         0.096318      0.047609     -0.040288
Ni	     14.88452     12.03671     -2.18741         0.054870      0.048057     -0.044798
Ni	     14.84976     16.10698     -6.26192         0.037723      0.040416     -0.036109
O	      4.25221      4.14321     -2.17024         0.076074     -0.118757      0.124349
O	      4.21375      8.23194     -6.26417         0.075781     -0.115628      0.127933
O	     12.82904      6.16988     -4.19138         0.062010     -0.161367      0.157031
O	     12.70599     10.27753     -8.30676         0.086007     -0.145184      0.154639
O	      4.25199      6.11142     -0.20263         0.078618     -0.115507      0.117529
O	      4.21623     10.21088     -4.29590         0.061060     -0.119352      0.120068
O	     12.82993      8.12638     -2.22879         0.057691     -0.151597      0.163356
O	     12.50162     12.21382     -6.29788         0.094997     -0.120691      0.117896
O	      4.25774      8.08929      1.76085         0.075739     -0.126131      0.123945
O	      4.21989     12.17951     -2.32811         0.074154     -0.128255      0.117860
O	     12.59436     10.05358     -0.20531         0.125987     -0.122794      0.117704
O	     12.50110     14.17725     -4.33152         0.126764     -0.121248      0.127328
O	      6.42584     10.11326      1.68490        -0.000460     -0.113675      0.127092
O	      6.34010     14.21231     -2.42047         0.024656     -0.124855      0.130564
O	     14.90677     12.08687     -0.28149         0.016092     -0.128304      0.138047
O	     14.84239     16.16801     -4.36151         0.013880     -0.118796      0.119843
O	      6.38928      6.17228     -2.23153         0.021579     -0.124811      0.125973
O	      6.33841     10.29041     -6.32283         0.020491     -0.139835      0.128101
O	     14.75600      8.14136     -4.20457         0.173344     -0.112678      0.105633
O	     14.83873     12.24089     -8.28120         0.027983     -0.119271      0.114169
O	      6.42603      8.16667     -0.26429        -0.002315     -0.125863      0.115134
O	      6.37641     12.27096     -4.38543        -0.003019     -0.124417      0.140001
O	     14.90891     10.13346     -2.23703         0.012448     -0.126393      0.125223
O	     14.82268     14.18487     -6.30500         0.023733     -0.111638      0.121697
O	      4.22632      5.95630     -3.99762        -0.046516      0.132784     -0.128269
O	      4.20270     10.06077     -8.08619        -0.069310      0.131649     -0.136339
O	     12.83488      7.98209     -5.98319        -0.055274      0.155483     -0.154929
O	     12.75396     12.09458    -10.12194        -0.068523      0.126688     -0.138174
O	      4.22606      7.93899     -2.01620        -0.047199      0.130121     -0.139731
O	      4.20830     12.03902     -6.12231        -0.049031      0.130385     -0.135251
O	     12.83693      9.92124     -4.03462        -0.060439      0.157338     -0.158161
O	     12.72713     14.04287     -8.13014        -0.032589      0.135521     -0.140451
O	      4.25160      9.91616     -0.06535        -0.071674      0.124351     -0.134807
O	      4.21208     14.00500     -4.16232        -0.081708      0.133755     -0.126096
O	     12.83119     11.89713     -2.04743        -0.062329      0.140978     -0.149555
O	     12.73495     16.00836     -6.15844        -0.072259      0.121894     -0.136558
O	      6.40077      1.95168     -1.95095        -0.003103      0.150941     -0.131160
O	      6.35023     11.93071     -0.11217        -0.011080      0.161735     -0.146151
O	     14.92454      9.83633      1.97076         0.015074      0.133179     -0.123864
O	     14.90451     13.92375     -2.10884         0.021521      0.122261     -0.136599
O	      6.39966      3.92003      0.02784        -0.013755      0.124281     -0.148633
O	      6.23176      7.98017     -4.03841        -0.033712      0.147338     -0.154796
O	     14.93063      5.89230     -1.95058         0.003355      0.132188     -0.136001
O	     14.91615      9.98366     -6.03206        -0.002138      0.135156     -0.143985
O	      6.41414      5.89246      1.98219        -0.014357      0.145144     -0.139917
O	      6.35064      9.96370     -2.08264        -0.008871      0.145677     -0.154030
O	     14.91048      7.86951      0.01764         0.021861      0.126674     -0.126662
O	     14.89765     11.96360     -4.08194         0.023688      0.138438     -0.124058
O	     17.05264      6.13260     -4.15516        -0.000223     -0.148232      0.137820
O	     17.03020     10.21352     -8.24170         0.004826     -0.136358      0.142699
O	      8.51348      4.12513     -2.14728        -0.000818     -0.123837      0.138487
O	      8.37587      8.23625     -6.31490        -0.047466     -0.178807      0.187465
O	     17.04915      8.09496     -2.19117         0.000179     -0.135733      0.154945
O	     -0.02822      8.14664     -2.23520         0.006635     -0.139149      0.138155
O	      8.51024      6.09206     -0.18905         0.003055     -0.144616      0.141491
O	      8.40371     10.26645     -4.29932        -0.049694     -0.204833      0.166109
O	      0.00547      6.03487      3.81412         0.000307     -0.136684      0.132861
O	     -0.02679     10.11826     -0.26664        -0.002087     -0.143158      0.137623
O	      8.52618      8.06730      1.78312         0.005440     -0.117769      0.108599
O	      8.39853     12.17427     -2.33070        -0.022835     -0.153081      0.169703
O	      2.11885      4.10486     -0.16344         0.064235     -0.126592      0.122995
O	      2.09764      8.19417     -4.25323         0.057696     -0.128373      0.125383
O	     10.70096      6.12047     -2.18069         0.031713     -0.157053      0.151264
O	     10.61547     10.31362     -6.35683         0.065676     -0.133450      0.152170
O	      2.12908      6.07814      1.79600         0.062635     -0.119615      0.135724
O	      2.10035     10.16794     -2.28640         0.057606     -0.121870      0.128557
O	     10.69333      8.07383     -0.18955         0.062668     -0.114202      0.134555
O	     10.61963     12.27850     -4.39690         0.076119     -0.133090      0.129876
O	      2.12962      2.14422     -2.13731         0.065107     -0.127951      0.117057
O	      2.09701      6.22622     -6.22473         0.059447     -0.124925      0.126932
O	     10.69432     10.04094      1.77577         0.060835     -0.133811      0.110969
O	     10.61214     14.23655     -2.43328         0.073068     -0.142506      0.129916
O	     17.03925      7.95219     -5.96549        -0.004371      0.121011     -0.122779
O	     17.01109     12.03319    -10.06079        -0.010715      0.122372     -0.122471
O	      8.57556      5.90829     -3.96714        -0.015250      0.151122     -0.127756
O	      8.49760     10.05280     -8.06708        -0.023596      0.142781     -0.120541
O	     17.03915      9.90670     -4.01125        -0.006012      0.122480     -0.115079
O	     17.01018     14.00514     -8.08921        -0.017197      0.118544     -0.119671
O	      8.57586      7.90840     -1.97024        -0.016963      0.126648     -0.152719
O	      8.69738     12.03636     -6.13960        -0.179573      0.096897     -0.108926
O	     -0.00197      7.86096      1.98958        -0.029348      0.122651     -0.130350
O	     17.01050     15.97149     -6.12532        -0.008533      0.122411     -0.124326
O	      8.77574      9.89933     -0.04712        -0.145581      0.107606     -0.115533
O	      8.69441     14.02759     -4.17413        -0.166036      0.098210     -0.100570
O	      2.11965      9.87700      1.94224        -0.074858      0.130746     -0.127017
O	      2.08342      8.05234     -8.05121        -0.070793      0.129704     -0.130768
O	     10.69341     11.81409     -0.01117        -0.121037      0.114127     -0.158500
O	     10.59129     16.01656     -4.21380        -0.087008      0.116600     -0.134205
O	      2.11600      5.93052     -1.99111        -0.077340      0.127388     -0.131495
O	      2.08370     10.02233     -6.07888        -0.080948      0.124514     -0.132941
O	     10.93393      7.93384     -3.99369        -0.203227      0.092115     -0.097922
O	     10.58713     12.09328     -8.13485        -0.061776      0.144084     -0.123672
O	      2.11912      7.90836     -0.02612        -0.074742      0.129408     -0.124779
O	      2.08765     11.99511     -4.11426        -0.080625      0.134255     -0.133370
O	     10.69235      9.85948     -1.96331        -0.119703      0.166307     -0.114551
O	     10.56782     14.04534     -6.16683        -0.076433      0.125508     -0.120013
