# total energy = -729.36653878 eV
 
CRYSTAL
PRIMVEC
-0.000687 5.904840 5.896563 
16.163115 3.880333 -3.876954 
-0.291784 8.322888 -8.310793 
PRIMCOORD
160 1
Li	      8.08163      7.89007      3.89219        -0.026948      0.024756     -0.030835
Li	      8.08192      3.97691     -0.01593        -0.028427      0.031580     -0.025178
Li	      8.10053      5.92995      1.94174        -0.034165      0.025907     -0.022247
Li	      1.76446      1.85846      0.11095         0.078375     -0.037947      0.036869
Li	     10.13454      3.95264     -1.98175        -0.015333      0.010576     -0.008290
Li	     10.24366      5.96852     -0.02141        -0.042686      0.019863     -0.022229
Li	     10.24360      7.89464      1.90213        -0.041635      0.020852     -0.020354
Li	      3.80567      7.86501      3.87156        -0.001742     -0.021555      0.024280
Li	     12.37896      9.85563      1.71585        -0.015566      0.027301     -0.029310
Li	      3.80625      3.99673      0.00726        -0.002495     -0.023882      0.024329
Li	     12.37968      6.15661     -1.98013        -0.017020      0.031449     -0.025132
Li	      3.49284      5.72628      2.14298        -0.020663     -0.043043      0.041029
Li	      6.00217      3.90690     -1.93649        -0.016327      0.022873     -0.026521
Li	      5.74990      7.92648     -5.95272         0.046830     -0.094439      0.091578
Li	      5.98842      5.89290      0.03598        -0.010561      0.010851      0.016332
Li	      5.98822      7.83666      1.97696        -0.009326     -0.016987     -0.011549
Ni	     15.95453     11.77062      0.01673        -0.069341      0.088139      0.015553
Ni	     15.91574     10.09237    -10.07293         0.118666     -0.121703      0.128089
Ni	      8.05917      9.85776      1.93976        -0.117187     -0.036115      0.100367
Ni	      7.86354     14.01950     -2.21671        -0.130161     -0.021969     -0.004990
Ni	     15.95470      7.85444     -3.89310        -0.069212     -0.012240     -0.085539
Ni	     15.91580     12.06316     -8.10412         0.114016     -0.112499      0.127669
Ni	      8.05926      5.93053     -1.98248        -0.115057     -0.098380      0.041610
Ni	      7.86302     10.09734     -6.13355        -0.127514      0.007241      0.024917
Ni	     15.96959      9.81104     -1.93693        -0.187241      0.148278     -0.151860
Ni	     15.94107     14.03257     -6.14217         0.331748     -0.086230      0.080092
Ni	      8.08156      7.89955     -0.02652        -0.153125     -0.082825      0.072638
Ni	      7.87511     12.05532     -4.17195        -0.154780      0.039594     -0.040618
Ni	      1.87185      4.14478     -2.17361        -0.122332     -0.004164      0.001421
Ni	      1.80282      8.17348     -6.19012         0.316177     -0.354366      0.352213
Ni	     10.03665      6.04088     -4.06883        -0.126305     -0.035501      0.024212
Ni	      9.84551     10.20456     -8.22207        -0.066597      0.039706     -0.045303
Ni	      1.85304      6.11388     -0.22309        -0.107252     -0.028283     -0.003224
Ni	      1.77743     10.17328     -4.26028         0.364768     -0.088130      0.004400
Ni	     10.04687      7.99504     -2.08892         0.036242      0.028460     -0.025763
Ni	      9.84426     12.17980     -6.26425        -0.093542      0.027416      0.008406
Ni	      1.85322      8.09571      1.75700        -0.109393      0.010841      0.026732
Ni	      1.77685     12.14597     -2.29089         0.371272      0.002214      0.087559
Ni	     10.04719      9.96270     -0.12289         0.037295      0.028086     -0.031650
Ni	      9.84406     14.14878     -4.29814        -0.093705     -0.004692     -0.022339
Ni	      3.98038      9.97508      1.81747         0.086867      0.023072      0.148361
Ni	      3.74048     14.15938     -2.34723        -0.045802     -0.018703     -0.199772
Ni	     12.00471      6.08335     -6.06837        -0.001941      0.042230     -0.057329
Ni	     11.93211     10.16976    -10.15237         0.094796      0.016927      0.094888
Ni	      3.98085      6.05203     -2.10025         0.086076     -0.144518     -0.016974
Ni	      3.74143     10.22740     -6.27347        -0.051844      0.201623      0.024984
Ni	     12.00457      8.04116     -4.11375        -0.006403      0.048932     -0.050163
Ni	     11.93184     12.13645     -8.18826         0.094643     -0.086866     -0.011643
Ni	      3.95994      8.01400     -0.14175         0.092621     -0.120515      0.113801
Ni	      3.73912     12.18022     -4.29728        -0.044979     -0.005766      0.003955
Ni	     12.00649      9.99579     -2.12433        -0.071348     -0.011883      0.007903
Ni	     11.91409     14.11843     -6.23501         0.130948     -0.035117      0.027250
Ni	      6.01429      6.04291     -4.07146        -0.067224      0.007028     -0.013744
Ni	      5.71441     10.30074     -8.31860         0.047347      0.034951     -0.041122
Ni	     14.00899      8.05251     -6.08371        -0.030202      0.032973     -0.049854
Ni	     14.00644     12.21713    -10.23221        -0.116089      0.015808     -0.018950
Ni	      5.97365      8.10367     -2.19954        -0.136020      0.776286     -0.780841
Ni	      5.72446     12.26797     -6.34253         0.083110      0.026206     -0.029966
Ni	     14.00267     10.02635     -4.12138        -0.043038      0.021963     -0.038756
Ni	     14.01833     14.23814     -8.30746        -0.025586     -0.060885      0.142716
Ni	      5.97337     10.07408     -0.23316        -0.110728      0.765079     -0.780710
Ni	      5.72425     14.22663     -4.38632         0.082374      0.030268     -0.026573
Ni	     14.00232     11.99064     -2.15761        -0.031974      0.038196     -0.019221
Ni	     14.01784     16.19434     -6.35436        -0.023208     -0.144265      0.059621
O	      4.00150      4.15058     -2.17817         0.025064     -0.062816      0.070859
O	      3.83324      8.37945     -6.39651        -0.127070     -0.138864      0.145365
O	     12.02255      6.17716     -4.20469         0.121440     -0.168976      0.177361
O	     11.69337     10.28250     -8.29919         0.108582     -0.123426      0.135295
O	      3.97515      6.11442     -0.22364         0.046133     -0.084452      0.109616
O	      3.68738     10.31860     -4.41129         0.849260      0.095595     -0.107737
O	     11.89854      8.11380     -2.24288         0.043300     -0.224900      0.156603
O	     11.68620     12.25789     -6.33680         0.128297     -0.121214      0.129583
O	      3.97526      8.09820      1.75745         0.046517     -0.110860      0.088015
O	      3.68678     12.29682     -2.43599         0.849945      0.111930     -0.092689
O	     11.89886     10.11707     -0.24196         0.042025     -0.159919      0.227248
O	     11.68608     14.22244     -4.37514         0.121210     -0.132826      0.123120
O	      5.90908     10.03722      1.71955         0.044118     -0.289087      1.014557
O	      5.63771      8.41382     -8.39001         0.110361     -0.112971      0.124367
O	     13.87338     12.07470     -0.28508         0.187178     -0.110482      0.095059
O	     14.04894     16.22795     -4.43930        -0.064950     -0.086569      0.087319
O	      5.90951      6.15032     -2.16113         0.041540     -1.008464      0.291169
O	      5.63773     10.37482     -6.43242         0.114977     -0.127328      0.107935
O	     13.87390      8.15502     -4.20143         0.186899     -0.111063      0.110983
O	     14.04970     12.32316     -8.33787        -0.071453     -0.085117      0.089338
O	      5.91116      8.14918     -0.27551         0.013999     -1.208378      1.216281
O	      5.64570     12.34634     -4.46285         0.105639     -0.095261      0.100786
O	     13.87439     10.10556     -2.23673         0.321823     -0.097277      0.114347
O	     14.08074     14.29470     -6.40793        -0.177868     -0.060060      0.070256
O	      4.13033      5.94677     -3.97628        -0.179217      0.071740     -0.072532
O	      3.64595     10.14967     -8.16836         0.004532      0.147243     -0.142208
O	     12.11313      7.94607     -5.97643        -0.092308      0.145447     -0.151714
O	     12.10873     12.09537    -10.11304        -0.008630      0.109865     -0.107284
O	      3.98029      7.88862     -1.98155         0.087215      0.199227     -0.113441
O	      3.70563     12.10966     -6.18101        -0.077355      0.060342     -0.148266
O	     12.10172      9.91166     -3.98658        -0.091147      0.123143     -0.207253
O	     11.99488     14.00840     -8.13241         0.235260      0.226424     -0.201693
O	      3.97978      9.85439     -0.01857         0.081438      0.109810     -0.208678
O	      3.70538     14.06443     -4.22910        -0.076111      0.140952     -0.063363
O	     12.10185     11.85773     -2.04225        -0.091945      0.205893     -0.125701
O	     11.99455     16.01641     -6.12709         0.234010      0.206215     -0.227870
O	      6.04877      7.78465      4.01408         0.021775      0.142435     -0.162411
O	      6.04105      5.97467     -5.88703         0.099741      0.829263      0.149596
O	     14.23906      3.79080     -3.74914         0.008080      0.214487     -0.162250
O	     14.03844     13.80142     -2.00168         0.037722      0.181309     -0.162224
O	      6.04941      3.85336      0.08823         0.022955      0.161042     -0.143949
O	      6.04118      7.85856     -4.00407         0.117168     -0.157173     -0.813178
O	     14.23857      5.72206     -1.82056         0.007119      0.158674     -0.219139
O	     14.03538      9.86641     -5.93425         0.045870      0.168162     -0.154512
O	      6.09576      5.81389      2.05617         0.031388      0.169829     -0.163263
O	      5.94271      9.94515     -2.07380         0.043298      0.707096     -0.707552
O	     14.19903      7.75214      0.11937         0.106503      0.081363     -0.076938
O	     14.01859     11.84409     -3.97667         0.042591      0.184511     -0.174026
O	     16.07339      6.02034     -4.04609        -0.002034     -0.147935      0.160378
O	     15.90194     10.25036     -8.25870        -0.094287     -0.178829      0.169777
O	      8.04053      4.04663     -2.07385         0.055279     -0.146621      0.152454
O	      7.68756      8.28391     -6.30084         0.000762     -0.229914      0.236201
O	     16.04674      8.00146     -2.06421         0.033794     -0.295763      0.236709
O	     15.92751     12.21857     -6.28484        -0.070026     -0.223639      0.182845
O	      8.05733      6.02135     -0.10638         0.038860     -0.153537      0.151725
O	      7.83719     10.25304     -4.29996         0.000579     -0.258742      0.232081
O	     16.04784      9.94227     -0.12728         0.028221     -0.247258      0.288840
O	     15.92582     14.17968     -4.32728        -0.064733     -0.204427      0.204530
O	      8.05701      7.98089      1.85081         0.043186     -0.153365      0.154175
O	      7.83779     12.18545     -2.36954        -0.000902     -0.230712      0.255232
O	      1.78992      4.20715     -0.29718         0.092906     -0.101116      0.132764
O	      1.62293      8.29795     -4.33097        -0.397990     -0.854599      0.698257
O	     10.10844      6.10281     -2.15872         0.113301     -0.106991      0.154070
O	      9.85419     10.33699     -6.38100         0.072218     -0.147523      0.136390
O	      1.74637      6.23406      1.63811         0.095641     -0.148902      0.154096
O	      1.66765     10.28342     -2.39769        -0.560785     -1.086579      1.092908
O	     10.08541      8.07708     -0.20370         0.147224     -0.123018      0.128449
O	      9.85954     12.30856     -4.42467         0.126284     -0.090451      0.100915
O	      1.79032      2.26774     -2.23304         0.091875     -0.135676      0.098034
O	      1.62237     12.21947     -0.41545        -0.401353     -0.696102      0.858658
O	     10.10850     10.03467      1.76931         0.109943     -0.150022      0.097665
O	      9.85473      8.36302     -8.35221         0.069450     -0.136429      0.148208
O	     15.86003      7.77878     -5.80648         0.102069      0.107379     -0.110063
O	     15.90181     11.98448     -9.99642         0.097503      0.077303     -0.074960
O	      7.93780      5.83839     -3.86746         0.154188      0.080446     -0.075568
O	      7.90427     10.05658     -8.07516        -0.036553      0.144249     -0.142327
O	     15.85245      9.75969     -3.84714         0.124098      0.127994     -0.096231
O	     -0.10833     10.06850     -4.14623        -1.309905      0.095409     -0.077607
O	      8.14597      7.81916     -1.91290        -0.044194      0.125066     -0.092590
O	      7.91391     12.04218     -6.11195        -0.029546      0.165401     -0.153717
O	     15.85203     11.72054     -1.88860         0.123977      0.091453     -0.131915
O	     -0.10861     12.03275     -2.18516        -1.315378      0.081223     -0.098127
O	      8.14667      9.78670      0.05207        -0.049765      0.087106     -0.128549
O	      7.91369     13.99563     -4.16112        -0.028362      0.150687     -0.168163
O	      2.13225      4.04682     -4.02346        -0.121420      0.136449     -0.136007
O	      1.90862      8.11929     -8.07221         0.133724      1.245409     -0.826797
O	     10.12591     11.82932     -0.04872        -0.206493      0.074017     -0.134327
O	      9.81041     10.15260    -10.12221        -0.068834      0.114014     -0.115004
O	      2.13199      5.99552     -2.07833        -0.121039      0.129502     -0.141986
O	      1.90866     10.05546     -6.13823         0.136659      0.824597     -1.247480
O	     10.12637      7.91804     -3.95529        -0.210969      0.131786     -0.075875
O	      9.81013     12.10515     -8.17239        -0.067332      0.110566     -0.114031
O	      2.11028      7.97116     -0.09990        -0.107849      0.143626     -0.142632
O	      1.90099     12.03788     -4.15536         0.265469      0.965836     -0.962446
O	     10.10556      9.85334     -1.98080        -0.257012      0.063134     -0.066731
O	      9.80724     14.08183     -6.19990        -0.049516      0.126923     -0.122645
