# total energy = -752.22643724 eV
 
CRYSTAL
PRIMVEC
0.006442 5.915078 5.934627 
16.321301 4.056632 -4.052197 
-0.093207 8.263272 -8.289784 
PRIMCOORD
164 1
Li	      8.07871      2.17811     -2.11630         0.024358     -0.047196      0.047897
Li	      0.06166      6.04044      5.77486        -0.052715      0.034576     -0.030381
Li	      8.02488      4.08727     -0.20269         0.012055      0.018105     -0.038165
Li	      0.09252      2.16028      1.84390        -0.018333      0.014472     -0.024073
Li	      8.12014      6.06333      1.84555         0.010706      0.052195     -0.034637
Li	      0.11675      4.09938      3.75121        -0.032300      0.023002     -0.029609
Li	      2.17508      2.09194     -0.15604        -0.005788      0.063587     -0.023698
Li	     10.21183      4.07794     -2.08024        -0.003717      0.011150     -0.013063
Li	     10.16296      6.03113     -0.11193        -0.002727      0.003090     -0.009116
Li	      2.46580      6.03270      3.49019         0.006879      0.086148     -0.034744
Li	     10.17018      7.99935      1.86525        -0.006258      0.012845     -0.006921
Li	     12.24331      9.95043      1.89821        -0.028680      0.003896      0.000088
Li	      4.07393      4.05366      0.08303        -0.007497      0.027439      0.033024
Li	     12.24125      6.01923     -2.06003        -0.031555      0.001056     -0.003842
Li	     12.23303      7.98787     -0.08126        -0.031505      0.003088     -0.000301
Li	     14.32594      6.03617     -4.05217        -0.029568      0.011707     -0.008838
Li	      6.02329      5.93158      0.00495         0.026769     -0.012983      0.015354
Li	     14.27261      7.99633     -2.07120        -0.029420     -0.041109     -0.050836
Li	      5.89165      7.97271      2.17388         0.037218      0.011032      0.001939
Li	     14.30634      9.96885     -0.09295        -0.031452      0.047463      0.039452
Ni	      0.02294      7.97656      3.86325        -0.159339     -0.076310      0.000114
Ni	     16.22482     10.24860    -10.26336        -0.142378     -0.084010      0.078714
Ni	      8.10489      4.03386     -4.02340        -0.036149     -0.049501      0.016328
Ni	      8.11579     14.12920     -2.29766        -0.303467      0.006784      0.012865
Ni	      0.03791      4.02822     -0.08192        -0.140285      0.001308      0.071808
Ni	     16.22902     12.22454     -8.28836        -0.128875     -0.058265      0.104145
Ni	      8.10994      5.99675     -2.05989        -0.036484     -0.021012      0.044908
Ni	      8.08105     10.17339     -6.25243        -0.334488     -1.248027      0.746827
Ni	     16.29430     10.06351     -2.17884        -0.031981     -0.006725      0.018267
Ni	     16.22889     14.19591     -6.31077        -0.070756     -0.116630      0.070787
Ni	      8.09836      7.97847     -0.07556        -0.043903     -0.040083      0.041803
Ni	      8.08543     12.14163     -4.26290        -0.238466     -0.859336      1.334149
Ni	      2.03704      4.12850     -2.18003        -0.074871     -0.019039     -0.025275
Ni	      1.92138      8.15498     -6.19296        -0.162430     -0.062097      0.238875
Ni	     10.19096      6.12802     -4.15310        -0.087559     -0.011748     -0.000470
Ni	     10.07899     10.23283     -8.27558        -0.068514     -0.058577     -0.005401
Ni	      2.03666      6.10445     -0.19961        -0.100627     -0.029247      0.008595
Ni	      1.93190     10.13921     -4.22839        -0.095039     -0.202134      0.049900
Ni	     10.19143      8.10317     -2.17440        -0.079285     -0.036179      0.026646
Ni	     10.10755     12.19863     -6.29724         0.237152      0.003599      0.003985
Ni	      2.01497      8.10445      1.75861        -0.098727      0.016850      0.019696
Ni	      1.92700     12.10659     -2.24314        -0.233662     -0.246410      0.207158
Ni	     10.19274     10.06947     -0.19835        -0.102764      0.000027      0.028523
Ni	     10.08806     14.16724     -4.31856        -0.054778     -0.010209      0.057709
Ni	      4.03056     10.06147      1.77548         0.010306      0.029895     -0.055218
Ni	      3.98471      8.10913     -8.11250         0.404775      0.035441      0.072362
Ni	     12.24734      6.15175     -6.14646         0.097051      0.055709      0.005401
Ni	     12.14800     16.13747     -4.31020         0.061569     -0.000130     -0.015612
Ni	      4.03645      6.11794     -2.18641         0.013457      0.055310     -0.047055
Ni	      4.01120     10.08106     -6.14460         0.193872      0.048498      0.039604
Ni	     12.24827      8.12092     -4.17892         0.060895     -0.016481     -0.051528
Ni	     12.16508     12.20259     -8.27078         0.026375     -0.004334     -0.068804
Ni	      4.04709      8.07932     -0.20302         0.035862      0.054932     -0.060708
Ni	      4.02024     12.04789     -4.16464         0.358908     -0.262687     -0.011638
Ni	     12.24929     10.09906     -2.19790        -0.130643     -0.009568      0.018770
Ni	     12.16788     14.17205     -6.29743         0.039898      0.065008      0.025726
Ni	      6.06695      6.19463     -4.23066         0.085656     -0.036534      0.024041
Ni	      6.00161     10.24890     -8.30605         0.151427      0.131613     -0.011626
Ni	     14.21150      8.24906     -6.27415         0.324341      0.859822     -0.862957
Ni	     14.20969     12.34164    -10.38768         0.029295      0.025147     -0.031695
Ni	      6.07111      8.19194     -2.27990         0.116714     -0.049619      0.050060
Ni	      6.05996     12.17705     -6.25535        -0.124736      0.088910     -0.192594
Ni	     14.24020     10.17888     -4.25875         0.131797      0.185469      0.040558
Ni	     14.21536     14.31571     -8.40954         0.043568      0.021265     -0.015439
Ni	      6.06908     10.15767     -0.29095         0.085417     -0.036336      0.036730
Ni	      6.02809     14.16979     -4.32161         0.120400     -0.009133     -0.055456
Ni	     14.24253     12.15907     -2.28341         0.148893     -0.076187     -0.188287
Ni	     14.21333     16.28610     -6.42896         0.023818      0.028517     -0.029393
O	      3.89247      4.23863     -2.26543         0.112533     -0.113208      0.116799
O	      3.76688      8.21031     -6.24858        -0.065720     -0.058053      0.745366
O	     12.30690      6.23443     -4.25620         0.090102     -0.111006      0.129440
O	     11.94582     10.32178     -8.37085         0.116293     -0.105240      0.119971
O	      4.05530      6.19136     -0.32060         0.077057     -0.127550      0.115466
O	      3.78863     10.18822     -4.28164        -0.116766     -0.744073      0.007021
O	     12.30413      8.21012     -2.28455         0.104817     -0.103070      0.168295
O	     12.07882     12.32140     -6.42096        -0.043778     -0.179153      0.161721
O	      4.00909      8.20149      1.65332         0.124772     -0.125097      0.123132
O	      3.77467     12.15311     -2.28767        -0.223366     -0.715750      0.680373
O	     12.31067     10.17344     -0.30953         0.099782     -0.176288      0.105035
O	     11.96119     14.26684     -4.41710         0.099099     -0.098319      0.109704
O	      5.91682     10.11649      1.69539         0.037063     -0.142343      0.160414
O	      6.20260      8.36138     -8.36532        -0.344923     -0.085012      0.078007
O	     14.18252      6.30572     -6.28969        -0.028679     -0.984055      0.341553
O	     14.32609     16.36615     -4.53647         0.111898     -0.065332      0.065365
O	      5.92113      6.20252     -2.24724         0.034705     -0.158341      0.150565
O	      6.16138     10.29969     -6.39361        -0.659287      0.053756     -0.061387
O	     14.16552      8.25988     -4.33621        -0.024393     -0.368033      0.960460
O	     14.32788     12.42517     -8.49687         0.107021     -0.058309      0.068683
O	      5.93453      8.14259     -0.26175         0.029826     -0.152688      0.141197
O	      6.17042     12.26404     -4.37862        -0.874825      0.073630     -0.043264
O	     14.16943     10.23203     -2.33144         0.141226      0.057619     -0.062362
O	     14.32969     14.39752     -6.51543         0.117405     -0.058084      0.046967
O	      4.06939      6.00108     -4.03910        -0.101757      0.076804     -0.080325
O	      4.03787     10.01200     -8.01379        -0.212853      0.690773     -0.155905
O	     12.23784      8.00007     -6.02719        -0.218199      0.072986     -0.046162
O	     12.18434     12.14189    -10.19351        -0.079514      0.128912     -0.097559
O	      4.07585      7.96519     -2.06332        -0.139626      0.086532     -0.077591
O	      4.22893     11.97837     -6.08410        -0.182800      0.051160     -0.629069
O	     12.31523      9.99413     -4.07158        -0.198366      0.069114     -0.077545
O	     12.19372     14.12549     -8.22114        -0.082463      0.117105     -0.114991
O	      4.06735      9.93589     -0.07363        -0.149355      0.088293     -0.097929
O	      4.09101     13.90237     -4.03884        -0.166464      0.976649     -0.811507
O	     12.31084     11.96541     -2.08205        -0.192994      0.072977     -0.077659
O	     12.18764     16.09362     -6.22925        -0.087384      0.090603     -0.125569
O	      6.18828      7.74453      4.06834        -0.057528      0.205039     -0.166122
O	      6.09924      6.09716     -6.09880        -0.039922      0.358480     -0.326189
O	     14.29893      3.99799     -3.99005         0.044086      0.091584     -0.099734
O	     14.24605     13.98841     -2.17056        -0.023722     -0.114863     -0.789694
O	      6.06928      3.87020      0.18398         0.047507      0.157823     -0.202022
O	      6.10656      8.06355     -4.13514        -0.022139      0.318290     -0.356912
O	     14.30147      5.96588     -2.01189         0.028428      0.086602     -0.090623
O	     14.24894     10.08019     -6.08876        -0.035431      0.757593      0.187878
O	      6.18161      5.77523      2.09431         0.022435      0.186026     -0.177013
O	      6.11203     10.04470     -2.14857        -0.028490      0.348804     -0.326997
O	     14.30106      7.93904     -0.02799         0.032774      0.110705     -0.100606
O	     14.25800     12.00173     -4.10657        -0.076718      0.092433     -0.086968
O	      0.03452      2.13198     -0.16731         0.018277     -0.148043      0.149568
O	     16.18236     10.40865     -8.44703         0.092172     -0.087749      0.099584
O	      8.24889      4.13202     -2.15585        -0.001672     -0.150576      0.169492
O	      8.11944      8.35864     -6.41999         0.163802     -0.592569     -0.073119
O	     16.20046      8.18949     -2.27011         0.016264     -0.136859      0.168606
O	     16.20141     12.37718     -6.47102         0.056667     -0.038911      0.032619
O	      8.11385      6.08815     -0.16874        -0.010112     -0.151380      0.151984
O	      8.10103     10.32372     -4.43432         0.117707     -1.226033      1.242701
O	     16.29605     10.15328     -0.28897         0.006850     -0.161088      0.134084
O	     16.19786     14.34634     -4.49124         0.055599     -0.049251      0.047223
O	      8.11545      8.06338      1.81339        -0.007861     -0.155966      0.141375
O	      8.12788     12.31403     -2.44616         0.210820      0.086101      0.527544
O	      2.04626      4.19129     -0.30312         0.167123     -0.135870      0.101292
O	      1.79556      8.26817     -4.32597        -0.014863     -0.094564      0.069379
O	     10.20366      6.19074     -2.23281         0.066035     -0.133693      0.121288
O	      9.96041     10.32556     -6.40629         0.832276      0.127479     -0.131924
O	      1.90960      6.23914      1.66908         0.116848     -0.171278      0.165344
O	      1.80025     10.24184     -2.35944        -0.019761     -0.075295      0.128915
O	     10.19180      8.14785     -0.25079         0.077711     -0.103120      0.113706
O	      9.96412     12.29727     -4.42183         0.852240      0.148515     -0.122965
O	      1.98077      8.14312      3.66939         0.215275     -0.120203      0.128766
O	      1.79396     12.20057     -0.37152        -0.009380     -0.118815      0.081279
O	     10.20756     10.12361      1.71430         0.075148     -0.118558      0.131374
O	      9.99376     14.27246     -2.44330         0.117102     -0.074266      0.064704
O	      0.08004      3.94415     -1.97465        -0.087370      0.113634     -0.108723
O	      0.01675      8.10260     -6.14171         0.054878      0.113191     -0.130649
O	      8.06827      5.90858     -3.93563         0.052469      0.128552     -0.109443
O	      8.16922     10.12468     -8.16631         0.129570      0.260581     -1.401813
O	     16.19644      9.97868     -4.06903         0.151232      0.029567     -0.027780
O	      0.02410     10.08619     -4.17522         0.027526      0.087371     -0.095163
O	      8.06483      7.87937     -1.95745         0.053288      0.119561     -0.118459
O	      7.98740     12.08499     -6.18176         0.063132      1.005522     -0.981527
O	     16.20826     11.96295     -2.09051         0.100384      0.026777     -0.034843
O	      0.02133     12.04974     -2.19053         0.099394      0.142171     -0.110392
O	      8.06518      9.85447      0.02723         0.063569      0.109344     -0.109278
O	      8.17336     14.05242     -4.19857         0.127309      1.432696     -0.247399
O	      2.15416      4.05474     -4.03924        -0.105304      0.123039     -0.086108
O	      1.91237      8.07176     -8.06766         0.247363      0.098619     -0.130325
O	     10.38500      6.02510     -6.02725        -0.112618      0.055449     -0.095663
O	     10.06278     16.05761     -4.23156        -0.041372      0.081556     -0.075495
O	      2.16316      5.98342     -2.07317        -0.097308      0.099928     -0.125096
O	      1.94123     10.01806     -6.10258        -0.105195      0.079044     -0.079526
O	     10.39148      8.00459     -4.04813        -0.098117      0.133065     -0.058028
O	     10.06488     12.11860     -8.20139        -0.132364      0.122719     -0.118893
O	      2.18131      7.97772     -0.11366        -0.088183      0.122599     -0.118843
O	      1.95285     12.01858     -4.10898         0.125412      0.114060     -0.108308
O	     10.38435      9.97630     -2.07391        -0.097517      0.112180     -0.145279
O	     10.06798     14.10744     -6.21063        -0.153522      0.093216     -0.122918
