# total energy = -807.52400299 eV
 
CRYSTAL
PRIMVEC
-0.001610 5.936707 5.897408 
16.734461 3.940925 -3.918916 
-0.157004 8.191795 -8.137363 
PRIMCOORD
172 1
Li	      8.37560      2.02018     -2.00561         0.005227      0.021069     -0.026340
Li	      8.36595      6.13680     -6.08941        -0.000818      0.012566     -0.012138
Li	      8.40345      4.02573     -0.03836        -0.042687      0.019308     -0.024044
Li	      8.37304      8.12023     -4.13124         0.001059      0.014466     -0.011559
Li	      8.35261      5.98045      1.91221        -0.007188      0.026398     -0.017244
Li	      8.34791     10.09640     -2.16118         0.000226      0.006199     -0.016924
Li	      1.70156      2.00703      0.15401         0.015080     -0.014355      0.004312
Li	     10.55477      4.07140     -1.98849         0.010447      0.006759     -0.049982
Li	     10.79111      8.18507     -6.19872         0.036484     -0.002963      0.008789
Li	     10.54117      5.97944     -0.08601         0.003323      0.056807      0.009310
Li	     10.82543     10.16778     -4.23033         0.032617     -0.006532      0.026561
Li	      1.69631      5.76269      3.89484         0.005085     -0.000871      0.010047
Li	     10.44860      7.96191      1.95379         0.025783      0.006665     -0.015305
Li	     10.76133     12.10890     -2.21645         0.038344     -0.012664      0.005253
Li	      4.15917      7.90316      3.89767        -0.030760      0.013269      0.016349
Li	      3.69165      6.01774     -5.96002        -0.026552      0.009270     -0.001818
Li	     12.91967      4.17540     -3.94318        -0.015475     -0.004514      0.019647
Li	      4.06544      3.95308      0.03947        -0.009237     -0.007195     -0.004284
Li	      3.62013      7.95492     -3.94756        -0.015108      0.001779     -0.003924
Li	      4.05804      5.85759      1.94136        -0.023387      0.001184     -0.003917
Li	      3.65753      9.93846     -1.97919        -0.023359     -0.005143     -0.007670
Li	     12.90796      7.92120     -0.19808        -0.007643     -0.007510      0.002480
Li	      6.25554      3.95230     -1.95572        -0.005023     -0.017943      0.016134
Li	      6.10088      8.03493     -6.01038         0.002947     -0.016040      0.016601
Li	      6.20524      5.90619     -0.00551         0.000219     -0.012779      0.017563
Li	      6.07955     10.01199     -4.04319        -0.008995     -0.025380      0.009858
Li	      6.23365      7.91268      1.96123        -0.010218     -0.016337      0.019462
Li	      6.08462     11.99473     -2.08538        -0.002199     -0.026669      0.014673
Ni	     16.58768     12.03854     -0.17697        -0.018243     -0.018094      0.017351
Ni	     16.58573     10.00833     -9.91557        -0.110460     -0.007494      0.117015
Ni	      8.39084      3.99465     -3.96260        -0.107824     -0.046880      0.048107
Ni	      8.28851     14.01138     -2.14387        -0.093642     -0.015837      0.052978
Ni	     16.59971      8.07864     -4.10458        -0.038308     -0.024101     -0.039922
Ni	     16.57679     11.98783     -7.95122         0.073187     -0.021072      0.254536
Ni	      8.36671      5.98080     -2.00238        -0.124834     -0.037905      0.045406
Ni	      8.27693     10.07496     -6.07416        -0.077566     -0.047303      0.051167
Ni	     16.60018     10.05579     -2.14268        -0.009200      0.042000      0.028228
Ni	     16.58623     13.96632     -5.98800        -0.002277     -0.302902     -0.007799
Ni	      8.36628      7.95878     -0.03834        -0.086374     -0.054969      0.033900
Ni	      8.26179     12.05373     -4.11536        -0.074133     -0.056516      0.031460
Ni	      1.94983      4.16898     -2.19517        -0.097484     -0.015599      0.007919
Ni	      1.79200      8.21643     -6.19135        -0.110032     -0.058022      0.044087
Ni	     10.51149      6.01508     -4.00551        -0.043418      0.001192     -0.016095
Ni	     10.34544     10.10489     -8.07110        -0.032879     -0.128978      0.020347
Ni	      1.98344      6.12057     -0.20013        -0.097174      0.001506      0.005105
Ni	      1.76742     10.22517     -4.24783        -0.069121     -0.036056      0.040721
Ni	     10.50678      7.99405     -2.04704        -0.049401      0.005396      0.000839
Ni	     10.34575     12.11181     -6.11343        -0.067563     -0.009852      0.215440
Ni	      1.95721      8.13395      1.74707        -0.094294     -0.009751      0.017859
Ni	      1.79481     12.18135     -2.24826        -0.074603     -0.048588      0.049636
Ni	     10.51204      9.96202     -0.06959        -0.063605     -0.005769      0.002036
Ni	     10.35428     14.04319     -4.13189        -0.066101     -0.002992     -0.028664
Ni	      4.09932      4.08396     -4.04647         0.020486     -0.002743      0.026403
Ni	      3.93997      8.16478     -8.10816         0.068025      0.012223     -0.001400
Ni	     12.65604     11.88409     -0.03385         0.088439      0.054801     -0.066672
Ni	     12.49432      9.99155     -9.92631         0.107933     -0.060119     -0.021248
Ni	      4.10611      6.01528     -2.06412         0.062126     -0.016921     -0.006071
Ni	      3.94604     10.13272     -6.13059         0.050178      0.000277      0.002034
Ni	     12.68481      7.90343     -3.93153         0.072577      0.023366     -0.033583
Ni	     12.46795     12.00426     -7.97808         0.110842     -0.141125      0.201243
Ni	      4.10585      8.02210     -0.10744         0.023819     -0.018966      0.002902
Ni	      3.94048     12.11274     -4.17399         0.062355     -0.009146      0.003217
Ni	     12.66108      9.91174     -1.98734         0.057554      0.053001     -0.035320
Ni	     12.50370     13.95630     -5.98397         0.118716      0.061112      0.048031
Ni	      6.19116      6.07370     -4.06206         0.059449      0.037908     -0.031261
Ni	      6.08542     10.16637     -8.14119         0.079534      0.068333     -0.035581
Ni	     14.60148      8.10188     -6.11232         0.060079      0.033073     -0.195911
Ni	     14.58751     12.00749     -9.95594        -0.016604      0.052985     -0.142424
Ni	      6.17655      8.05230     -2.10403         0.050113      0.030583     -0.020601
Ni	      6.08720     12.14414     -6.17746         0.101183      0.046411     -0.047315
Ni	     14.61072     10.08004     -4.14963         0.082595      0.018553     -0.131307
Ni	     14.58875     13.98567     -7.99312         0.000850      0.136242     -0.014734
Ni	      6.16280     10.05253     -0.13701         0.086180      0.009502     -0.042699
Ni	      6.06158     14.13089     -4.21724         0.106759      0.052811     -0.064210
Ni	     14.60188     12.06016     -2.18571        -0.014043      0.246478      0.001462
Ni	     14.59839     15.96414     -6.02567         0.060609     -0.005748     -0.007561
O	      4.08288      4.12618     -2.15410         0.099378     -0.120609      0.086926
O	      3.93590      8.22351     -6.19788         0.077722     -0.132943      0.114273
O	     12.52216      6.04925     -4.08649         0.080272     -0.181422      0.184572
O	     12.19489     10.15508     -8.08911        -0.096651     -0.641443     -0.018269
O	      4.08033      5.96465     -0.18859         0.114069     -0.081778      0.132830
O	      3.93464     10.20911     -4.23074         0.074944     -0.146756      0.134055
O	     12.51836      8.06729     -2.07567         0.093711     -0.173050      0.163520
O	     12.18731     12.11375     -6.12449        -0.075350     -0.019640      0.635633
O	      4.08780      8.13905      1.84138         0.097374     -0.107929      0.138942
O	      3.93530     12.20454     -2.26716         0.085642     -0.128131      0.127648
O	     12.52895      9.99336     -0.10027         0.070335     -0.149481      0.137603
O	     12.19355     14.07542     -4.13907         0.131997     -0.103300      0.110401
O	      6.04408      4.14943     -4.11008         0.108839     -0.117284      0.115896
O	      6.14295     14.21047     -2.32342         0.002231     -0.153964      0.147588
O	     14.72063     12.15807     -0.30216        -0.075233     -0.082882      0.131906
O	     14.66118     10.11718    -10.03000        -0.076677     -0.133436      0.084807
O	      6.04933      6.09823     -2.14028         0.099053     -0.110010      0.129922
O	      6.16882     10.24316     -6.24861        -0.019666     -0.115098      0.122810
O	     14.73407      8.19968     -4.22372        -0.076267     -0.145639      0.190240
O	     14.65080     12.09279     -8.06461        -0.178888     -0.113734      0.123854
O	      6.05312      8.12569     -0.19212         0.117871     -0.110170      0.109566
O	      6.15635     12.24026     -4.28698        -0.017783     -0.126208      0.141887
O	     14.73134     10.17144     -2.26812        -0.091881     -0.197650      0.081592
O	     14.66208     14.07171     -6.10231        -0.102260     -0.073456      0.146327
O	      4.15178      5.96085     -3.94059        -0.084264      0.101884     -0.117805
O	      4.02203     10.07087     -8.04175        -0.059455      0.118730     -0.117422
O	     12.74783      7.84020     -5.83037        -0.158831      0.086485     -0.080795
O	     12.70579     11.87214     -9.86730        -0.106699      0.135703     -0.736946
O	      4.15226      7.88080     -2.03278        -0.095817      0.115860     -0.148465
O	      4.07897     12.02499     -6.06563        -0.094438      0.139724     -0.129793
O	     12.75724      9.80167     -3.87746        -0.186255      0.117090     -0.080521
O	     12.72039     13.89330     -7.86078        -0.084714      0.722373     -0.148107
O	      4.15545     10.04701     -0.00316        -0.079119      0.089670     -0.136997
O	      4.00885     14.02672     -4.12703        -0.068278      0.124940     -0.107767
O	     12.74851     11.79626     -1.92097        -0.201142      0.075038     -0.122060
O	     12.72685     15.84870     -5.91918        -0.222294      0.089944     -0.088923
O	      6.27943      7.82545      4.00824         0.009310      0.124836     -0.128764
O	      6.28775      5.99042     -5.93374         0.027535      0.148154     -0.161626
O	     14.71575      9.59112      2.25866         0.000167      0.241267     -0.246710
O	     14.48525     13.87630     -2.03565         0.043518      0.177367     -0.048072
O	      6.30829      3.85136      0.08266         0.012300      0.135282     -0.145940
O	      6.27941      7.95205     -3.96633         0.021830      0.155916     -0.171201
O	     14.68374      5.63626     -1.67219        -0.005015      0.274484     -0.289891
O	     14.49532      9.91874     -5.96869        -0.017173      0.223356     -0.201742
O	      6.27167      5.84435      2.03956         0.004486      0.139545     -0.123473
O	      6.22713      9.94737     -2.01265         0.022940      0.168576     -0.146762
O	     14.71679      7.61519      0.29172         0.020373      0.232187     -0.218174
O	     14.49318     11.89776     -4.00642         0.003796      0.226006     -0.141024
O	     16.62702      6.25759     -4.25353         0.036917     -0.231352      0.236087
O	     -0.04046      6.23002     -4.17672         0.032877     -0.203450      0.203722
O	      8.33834      4.08877     -2.08292         0.005724     -0.141071      0.157964
O	      8.22565      8.17832     -6.16657        -0.014985     -0.155064      0.133612
O	     16.66003      8.23491     -2.28794        -0.007165     -0.278400      0.273381
O	     -0.04320      8.20904     -2.21396        -0.018574     -0.176406      0.022100
O	      8.30087      6.08165     -0.12491         0.007735     -0.156629      0.151540
O	      8.17364     10.17492     -4.21153        -0.007472     -0.150060      0.157425
O	     16.62755     10.21851     -0.32291         0.012655     -0.228613      0.227564
O	     -0.03417     10.18793     -0.24865         0.009939     -0.233434      0.152600
O	      8.32627      8.04517      1.84636        -0.002969     -0.138601      0.134333
O	      8.16418     12.13602     -2.24427        -0.021290     -0.137465      0.152576
O	      1.73402      4.23090     -0.31786         0.193811     -0.114260      0.111748
O	      1.69494      8.32636     -4.30173         0.027275     -0.121539      0.108311
O	     10.37516      6.10072     -2.11487         0.093822     -0.153023      0.143145
O	     10.30016     10.24640     -6.14409         0.110800     -0.091417      0.111531
O	      1.74648      6.25167      1.68882         0.204251     -0.095318      0.124227
O	      1.70483     10.28816     -2.34946         0.182261     -0.053108      0.115484
O	     10.42997      8.05321     -0.13660         0.063527     -0.102538      0.120946
O	     10.30134     12.16673     -4.23679         0.057288     -0.091481      0.069112
O	      1.72691      2.27587     -2.25988         0.183649     -0.112762      0.113168
O	      1.70431      6.33176     -6.25849         0.184155     -0.127810      0.091493
O	     10.44194      4.09969     -4.05370         0.067319     -0.131651      0.106742
O	     10.29667     14.01866     -2.27760         0.037150     -0.110828      0.124408
O	     16.52721      7.99335     -5.99779         0.002391      0.095526     -0.085216
O	     16.45596     11.89639     -9.83183         0.111606      0.126170     -0.211463
O	      8.29658      5.88524     -3.89264         0.014163      0.133247     -0.134641
O	      8.39984     10.00341     -7.98500        -0.079668      0.132197     -0.130934
O	     16.53819      9.97242     -4.03539         0.094224      0.113556     -0.082508
O	     16.45380     13.86696     -7.87666         0.090560      0.069670     -0.122905
O	      8.28615      7.88158     -1.93051         0.017984      0.122411     -0.126200
O	      8.40348     12.02946     -6.03694        -0.069834      0.132294     -0.156491
O	     16.52779     11.94878     -2.06936         0.111435      0.075446     -0.136389
O	     16.46552     15.84624     -5.90126         0.065792      0.238664     -0.063505
O	      8.30860      9.85211      0.04101         0.000705      0.142389     -0.144100
O	      8.40804     13.97791     -4.06637        -0.098564      0.116808     -0.115169
O	      2.25668      9.98717      1.85787        -0.090817      0.130085     -0.144959
O	      1.92293      8.13525     -8.07765        -0.055918      0.138898     -0.154374
O	     10.51489     11.86164     -0.01343        -0.096695      0.121607     -0.135401
O	     10.36160     15.92421     -4.12484        -0.090123      0.120757     -0.095556
O	      2.26512      6.01231     -2.05386        -0.102324      0.113132     -0.133168
O	      1.93433     10.06119     -6.10312        -0.088751      0.185904     -0.173680
O	     10.51800      7.92052     -3.94656        -0.074482      0.142423     -0.142659
O	     10.37020     12.16201     -7.98905         0.180739      0.082329     -0.166244
O	      2.25419      7.97046     -0.08983        -0.095900      0.123788     -0.123656
O	      1.92932     12.07934     -4.09303        -0.066856      0.157916     -0.168949
O	     10.51679      9.90383     -1.97696        -0.082464      0.133255     -0.120980
O	     10.36936     14.00107     -6.02367        -0.094043      0.086256     -0.090564
