# total energy = -805.17744236 eV
 
CRYSTAL
PRIMVEC
0.002380 5.891756 5.929886 
16.734385 3.910965 -3.930025 
-0.165556 8.137454 -8.189751 
PRIMCOORD
172 1
Li	      8.39595      7.89974      3.89609        -0.003208      0.009018     -0.007425
Li	      8.34633     11.98597     -0.20425        -0.030214      0.006294     -0.035926
Li	      8.38651      3.97797     -0.03997         0.010664     -0.057316      0.002390
Li	      8.35973      8.05133     -4.16019        -0.043276      0.086906     -0.089284
Li	      8.36411      5.93071      1.92740         0.005739      0.053765     -0.011198
Li	      8.36101     10.01907     -2.18556        -0.037067      0.045823     -0.018763
Li	      1.71381      1.80845     -0.01063         0.027330     -0.048838      0.000943
Li	     10.54387      4.00213     -2.04413        -0.005718      0.002243      0.002284
Li	     10.78364      8.17163     -6.19537         0.019731     -0.011039      0.031049
Li	      1.71486      3.95733      2.14270        -0.042697     -0.002443      0.051988
Li	     10.52456      5.91879     -0.10049        -0.006565      0.007015      0.001511
Li	     10.79135     10.08370     -4.21608         0.027748     -0.035574      0.015164
Li	     10.45048      7.90193      1.94355        -0.007601     -0.005202     -0.010747
Li	     10.79191     12.06936     -2.24311         0.026869     -0.053888      0.029388
Li	      4.07465      7.81936      3.98558        -0.010101      0.008680     -0.010006
Li	      3.65408     11.78741     -0.04899        -0.022610      0.030782      0.041854
Li	     12.89774      4.13519     -3.97456        -0.007243     -0.015544     -0.018498
Li	      4.16303      3.91987     -0.00126         0.011730     -0.001644     -0.070832
Li	      3.64874      7.89030     -4.00354        -0.011533      0.014116      0.007987
Li	      4.09455      5.90237      2.04228        -0.010679      0.072173     -0.002116
Li	      3.64882      9.87094     -2.03252        -0.030131     -0.035688     -0.016793
Li	     12.89723      7.86335     -0.21167        -0.006983      0.012930      0.015994
Li	      6.21880      3.92258     -1.95390         0.010550     -0.025426      0.083389
Li	      6.09619      7.96829     -6.05032         0.031894      0.054796      0.024518
Li	      6.25142      5.88747      0.01200         0.006524     -0.020556      0.008063
Li	      6.08364      9.93660     -4.06993         0.033969     -0.035031      0.003034
Li	      6.22752      7.84095      1.98416         0.006544     -0.068192      0.028518
Li	      6.08855     11.90222     -2.09348         0.054713     -0.026622     -0.030455
Ni	     16.60350      6.04133     -6.06827         0.015977     -0.215519     -0.065141
Ni	     16.56164     15.81686     -4.08455         0.082808     -0.084101      0.152711
Ni	      8.36690      9.86085      1.93588        -0.123013     -0.067363      0.059289
Ni	      8.28509     13.92426     -2.15958         0.052143     -0.407575      0.216658
Ni	     16.59851      8.01107     -4.09401        -0.027909     -0.003172      0.016846
Ni	     16.55593     11.88631     -8.03421         0.008963     -0.082805      0.050854
Ni	      8.36245      5.93090     -2.01840        -0.165172     -0.060413      0.068563
Ni	      8.28782      9.99846     -6.09659        -0.060789     -0.156234      0.030691
Ni	     16.60021      9.97311     -2.11327         0.002086      0.070070      0.221319
Ni	     16.56162     13.85529     -6.06211         0.080936     -0.147483      0.086073
Ni	      8.37787      7.89648     -0.04309        -0.125418     -0.044930      0.056909
Ni	      8.26472     11.96927     -4.13775        -0.010257     -0.256445      0.450422
Ni	      1.97958      4.13522     -2.16108        -0.087029     -0.020736      0.005380
Ni	      1.78994      8.15135     -6.22922        -0.055106     -0.058096      0.054156
Ni	     10.49984      5.97970     -4.03404        -0.075850      0.004203     -0.022328
Ni	     10.34069     10.03908     -8.12615        -0.141400      0.140426     -0.025538
Ni	      1.95663      6.10008     -0.20234        -0.090657      0.000885      0.014492
Ni	      1.78708     10.10908     -4.26426        -0.088721     -0.079205      0.040832
Ni	     10.50558      7.93648     -2.05876        -0.071805      0.025739      0.006133
Ni	     10.34650     12.00358     -6.13918        -0.000394      0.038207     -0.196679
Ni	      1.97807      8.04814      1.79180        -0.095449     -0.033533      0.054555
Ni	      1.76182     12.10494     -2.30956        -0.011902      0.513594     -0.497884
Ni	     10.50180      9.90440     -0.08116        -0.062772      0.005789     -0.004840
Ni	     10.34354     13.96947     -4.19312        -0.111071      0.129211     -0.162925
Ni	      4.10847      4.03086     -4.04709         0.039626     -0.020387      0.041289
Ni	      3.95016     13.98055     -2.21577         0.028088      0.079796      0.019764
Ni	     12.65331      5.92304     -5.95273         0.069161     -0.015166     -0.083009
Ni	     12.47019     15.82817     -4.08921         0.110860      0.021022     -0.007265
Ni	      4.10660      5.99424     -2.05183         0.066629      0.017764      0.028524
Ni	      3.94446     10.05673     -6.16768         0.127025     -0.183212     -0.067086
Ni	     12.68340      7.85915     -3.94075         0.090369      0.062939     -0.049988
Ni	     12.47044     11.91690     -8.04247         0.056159      0.009265     -0.033969
Ni	      4.10324      7.95773     -0.10519         0.048043     -0.055910     -0.011414
Ni	      3.94442     12.02466     -4.18912         0.058530      0.022016      0.110185
Ni	     12.65896      9.85749     -1.98863         0.063979      0.089416      0.025956
Ni	     12.49182     13.86395     -6.04704         0.107452      0.023156     -0.018860
Ni	      6.16563      6.03021     -4.09047         0.039768      0.065096     -0.036747
Ni	      6.08055     10.09934     -8.18318         0.182825      0.136560      0.001789
Ni	     14.61910      8.05884     -6.09661         0.022060      0.001293     -0.058557
Ni	     14.57391     11.94198    -10.04031         0.019573     -0.160244     -0.079056
Ni	      6.18588      7.98676     -2.11191         0.036451      0.056213     -0.074302
Ni	      6.07191     12.06314     -6.20433        -0.459847      0.128133     -0.236459
Ni	     14.61925     10.02225     -4.12109         0.014467      0.056547      0.019389
Ni	     14.57980     13.90071     -8.06882         0.007972      0.074825      0.149337
Ni	      6.16059      9.95549     -0.15388         0.095305      0.035557     -0.028700
Ni	      6.08606     14.02799     -4.22774         0.151302      0.074566     -0.088879
Ni	     14.62411     11.99181     -2.14855         0.028172      0.005502     -0.006707
Ni	     14.58647     15.86666     -6.08897        -0.089266      0.026300     -0.039483
O	      4.08978      4.11903     -2.01161         0.053358     -0.111055      0.068892
O	      3.93698      8.15558     -6.23319         0.023823     -0.098512      0.148799
O	     12.51048      6.00912     -4.11251         0.030605     -0.179413      0.231014
O	     12.18792     10.07460     -8.17783         0.118914     -0.136409      0.148443
O	      4.09122      6.06882     -0.16069         0.072913     -0.109104      0.117319
O	      3.93628     10.11098     -4.25939         0.053346     -0.086456      0.071273
O	     12.51597      8.01656     -2.08861         0.035046     -0.229406      0.178509
O	     12.18894     12.02133     -6.18466         0.028256     -0.153470      0.166731
O	      4.09953      7.95122      1.77787         0.061135     -0.093093      0.119956
O	      3.93865     12.08470     -2.29310        -0.179680     -0.188185      0.168338
O	     12.51378      9.92821     -0.10308         0.111734     -0.125525      0.131277
O	     12.18407     13.98505     -4.20794         0.083052     -0.181058      0.164903
O	      6.04713      4.12538     -4.14569         0.106734     -0.162258      0.095790
O	      6.16446      8.20975     -8.25952         0.179954     -0.162021      0.150656
O	     14.73147      6.16935     -6.19453        -0.041302     -0.046123      0.071884
O	     14.65830     15.94148     -4.19676        -0.184966     -0.100743      0.093136
O	      6.04338      6.07286     -2.12502         0.097183     -0.151560      0.084193
O	      6.14846     10.17107     -6.29130        -0.069288     -0.979997      0.017858
O	     14.73670      8.14052     -4.21794        -0.121056     -0.103692      0.118937
O	     14.64600     12.01079     -8.15238        -0.097434     -0.171273      0.173544
O	      6.04463      8.03924     -0.17748         0.099081     -0.139007      0.125112
O	      6.15606     12.13519     -4.31171         0.220734     -0.022467      1.055447
O	     14.73124     10.10760     -2.23181        -0.040499     -0.065700      0.037132
O	     14.66026     13.97358     -6.17714        -0.174478     -0.097310      0.098669
O	      4.14689      5.97557     -3.91548        -0.061032      0.124814     -0.126690
O	      4.01971      9.99213     -8.08038        -0.061006      0.151727     -0.029371
O	     12.76196      7.80899     -5.83817        -0.143473      0.135136     -0.103523
O	     12.69373     11.80776     -9.93888        -0.169766      0.148463     -0.089257
O	      4.14577      7.87068     -1.98138        -0.079091      0.111084     -0.112383
O	      4.01368     11.96743     -6.09758         0.372271      0.222255     -0.285231
O	     12.76865      9.75659     -3.87328        -0.138419      0.114118     -0.134010
O	     12.70764     13.80468     -7.92021        -0.164460      0.100604     -0.156431
O	      4.15116      9.81247     -0.12636        -0.053419      0.158376     -0.107426
O	      4.07910     13.92112     -4.11299        -0.096076      0.043619     -0.142428
O	     12.76852     11.74490     -1.90746        -0.181317      0.108138     -0.122290
O	     12.71843     15.75668     -5.97988        -0.058071      0.108660     -0.117012
O	      6.28963      1.88054     -1.87934        -0.022279      0.117077     -0.141115
O	      6.22164     11.82061     -0.06734        -0.010005      0.173880     -0.083871
O	     14.71021      9.54721      2.25598        -0.025638      0.173089     -0.179434
O	     14.51501      7.91720     -7.91331        -0.016920      0.189110     -0.178246
O	      6.29538      3.84434      0.10505        -0.015895      0.046514     -0.853561
O	      6.26347      7.88514     -3.99830        -0.007971      0.152427     -0.107987
O	     14.69357      5.61539     -1.69029        -0.029503      0.383502     -0.374138
O	     14.51602      9.87543     -5.93385         0.022488      0.186978     -0.195844
O	      6.29317      5.80307      2.07512         0.005169      0.801518     -0.047792
O	      6.28499      9.85214     -2.03302        -0.009689      0.148563     -0.131061
O	     14.71277      7.58636      0.28110        -0.020275      0.166015     -0.181284
O	     14.51463     11.84381     -3.96418        -0.014575      0.133423     -0.172891
O	     16.63492      6.19225     -4.24802         0.034298     -0.193652      0.227573
O	     -0.06681      6.15772     -4.27034        -0.032546     -0.209152      0.234720
O	      8.32281      4.04926     -2.10869         0.029975     -0.125949      0.131354
O	      8.22762      8.11615     -6.20030         0.010457     -0.088785      0.676727
O	     16.63259      8.15379     -2.27432         0.035405     -0.220413      0.204401
O	     -0.06643      8.12744     -2.29075        -0.030017     -0.218434      0.218633
O	      8.32277      6.01991     -0.13132         0.012317     -0.148394      0.148982
O	      8.16402     10.09562     -4.22682        -0.029929     -0.787261      0.109195
O	     16.65466     10.11062     -0.29112        -0.017114     -0.041344      0.051730
O	     -0.07285     10.08936     -0.31798         0.032055     -0.180542      0.184486
O	      8.31839      7.97933      1.83669         0.032570     -0.143188      0.143108
O	      8.18655     12.06102     -2.26170        -0.099447     -0.870282      0.754969
O	      1.73304      4.20634     -0.27013         0.132474     -0.120986      0.134107
O	      1.67764      8.22174     -4.34424         0.140370     -0.101797      0.095809
O	     10.36767      6.03851     -2.13597         0.117691     -0.121773      0.126109
O	     10.30435     10.15006     -6.11636         0.130585     -0.085068      0.052029
O	      1.73870      6.16039      1.67343         0.128878     -0.148122      0.079714
O	      1.67693     10.20769     -2.37863         0.048485     -0.915344      0.138905
O	     10.43352      7.99550     -0.15006         0.079998     -0.127248      0.115623
O	     10.30384     12.09202     -4.26252        -0.102507     -0.133634      0.147399
O	      1.75094      2.26082     -2.24285         0.119762     -0.068663      0.133637
O	      1.68296     12.15489     -0.41182         0.060266     -0.138248      0.920689
O	     10.42652      9.96807      1.82753         0.090798     -0.104357      0.139315
O	     10.30887     13.99030     -2.32973        -0.151138     -0.200651      0.143345
O	     16.52766      7.92899     -5.98718         0.088649      0.196831     -0.090869
O	     16.44332     11.80917     -9.91378         0.139613      0.172540     -0.139885
O	      8.26953      5.85689     -3.91550         0.073122      0.164085     -0.154739
O	      8.40119      9.94731     -8.02142         0.005491      0.960943     -0.203183
O	     16.52486      9.90574     -4.00052         0.086760      0.097556     -0.193090
O	     16.44640     13.76616     -7.94655         0.134182      0.145714     -0.154902
O	      8.28534      7.82192     -1.93305         0.093538      0.148878     -0.138111
O	      8.40494     11.93194     -6.06067        -0.174874      0.264769     -0.866912
O	     16.53174     11.86637     -2.02957         0.134958      0.074421     -0.087778
O	     16.44886     15.73801     -5.96376         0.213798      0.105505     -0.137470
O	      8.30445      9.79339      0.03987        -0.033940      0.137884     -0.150575
O	      8.40399     13.89278     -4.10458         0.063123      0.964319     -0.873486
O	      2.26157      3.99968     -4.00280        -0.119096      0.137708     -0.141008
O	      1.94202      8.06465     -8.07336        -0.113905      0.769518      0.026574
O	     10.51246     11.80272     -0.01849        -0.069386      0.146922     -0.096200
O	     10.35791     15.84401     -4.23696        -0.043466      0.066505     -0.057174
O	      2.26504      5.98046     -2.04271        -0.103930      0.130546     -0.136493
O	      1.92246     10.03489     -6.14597        -0.061970      0.171785     -0.146397
O	     10.50606      7.87556     -3.95542        -0.017384      0.120576     -0.124194
O	     10.34723     12.00785     -8.02296         0.002356      0.188388     -0.043554
O	      2.26187      7.94406     -0.06564        -0.098491      0.141288     -0.140836
O	      1.94011     11.95435     -4.16357        -0.093961     -0.027710     -0.828553
O	     10.51203      9.85263     -1.98524        -0.067053      0.092184     -0.148281
O	     10.35495     13.89549     -6.08392        -0.051317      0.093780     -0.062311
