# total energy = -90.04473884 eV
 
CRYSTAL
PRIMVEC
4.184784 0.000434 0.000033 
-0.000068 -0.000224 -4.157432 
2.092758 8.395668 -2.078205 
PRIMCOORD
16 1
Li	      4.18299      4.41968     -4.15865         0.004828      0.033400     -0.001550
Li	      2.09256      6.17580     -4.15725        -0.001191     -0.055224     -0.000399
Li	      2.09110      4.32439     -2.08032         0.002276      0.057900      0.001921
Li	      4.18535      6.08161     -2.07859        -0.003310     -0.007098      0.000377
Mn	      2.09260      8.29798     -2.07870        -0.002343     -0.033574     -0.001545
Mn	      2.09094      2.20313     -4.15782         0.002090      0.003992      0.001595
Ni	      4.18499      8.28394     -4.15723        -0.002718     -0.089206      0.002917
Ni	      4.18324      2.21781     -2.07906         0.004767      0.087348     -0.006074
O	      4.18309      4.15115     -2.08001        -0.002803      0.090009      0.009827
O	      2.09309      6.48545     -2.07856        -0.002141     -0.039571      0.000347
O	      4.18362      1.93596     -4.15793        -0.001614     -0.032753      0.002629
O	      2.09073      4.01567     -4.15872         0.001153      0.074739      0.000156
O	      2.09181      0.16968     -4.15762         0.001249      0.031728     -0.003866
O	      4.18545      6.35062     -4.15726         0.000906     -0.107270     -0.005485
O	      4.18453      0.09544     -2.07915        -0.002303     -0.055756      0.002178
O	      2.09103      2.01120     -2.07907         0.001155      0.041336     -0.003029
