# total energy = -805.97230929 eV
 
CRYSTAL
PRIMVEC
0.006274 5.943696 5.953896 
16.476739 3.981508 -3.970573 
-0.151278 8.244304 -8.257970 
PRIMCOORD
172 1
Li	      8.29217      7.97415      3.91302         0.012037      0.016441     -0.026694
Li	      8.20618     12.11175     -0.23516         0.006784      0.013287      0.001864
Li	      8.32163      4.09417     -0.07044         0.012588      0.020681     -0.025729
Li	      8.24675      8.25056     -4.22158        -0.046610      0.005731     -0.019461
Li	      8.29490      5.99990      1.86562         0.009283      0.029132     -0.019584
Li	      8.18762     10.18332     -2.25132        -0.029571      0.024883     -0.016305
Li	      1.80876      2.03140      0.16357         0.017527      0.007281      0.012537
Li	     10.39007      4.01736     -2.06611         0.024869     -0.002523      0.012960
Li	     10.28505      8.12907     -6.21003         0.033914     -0.004634     -0.042390
Li	     10.78228      6.12145     -0.26379         0.021792     -0.007994     -0.008448
Li	     10.66541     10.20858     -4.42296         0.004793      0.036551     -0.023757
Li	      1.83405      5.78710      3.90074         0.013405     -0.019689     -0.007579
Li	     10.40386      7.97290      1.90498         0.027383     -0.014719     -0.008514
Li	     10.21741     12.08448     -2.23259         0.023157      0.023687      0.011195
Li	      4.07674      7.87251      3.92730        -0.028528      0.006034     -0.021327
Li	      3.65329      6.02230     -6.01506        -0.013386      0.019043      0.018255
Li	     12.58621     10.04876      1.83124        -0.043753      0.037213     -0.037931
Li	     12.41206     14.14150     -2.24993         0.015775     -0.077629      0.074503
Li	      4.02707      3.97096      0.05054        -0.012635      0.000614     -0.022152
Li	      3.65346      8.00814     -4.08022        -0.030305     -0.040566     -0.001621
Li	      4.00827      5.87256      1.97704        -0.024714     -0.005001     -0.032109
Li	      3.63505      9.93565     -2.04514        -0.024322      0.014743      0.052627
Li	      6.16487      3.95698     -1.99241        -0.001088     -0.016969      0.004199
Li	      5.99306      8.07545     -6.06339        -0.003922     -0.026225      0.022383
Li	      6.10796      5.92177     -0.01850         0.001493     -0.022439      0.011791
Li	      5.98788     10.05953     -4.10289         0.020311     -0.024597      0.021454
Li	      6.13379      7.93033      1.99818        -0.001359     -0.012759      0.007455
Li	      6.04169     12.03480     -2.11968        -0.020083     -0.022106      0.014896
Ni	     16.37440      6.09684     -6.07593         0.060502     -0.030287      0.001346
Ni	     16.31949     10.11902    -10.10206        -0.043663     -0.086515      0.019751
Ni	      8.28088      9.93898      1.93740        -0.103317     -0.028117      0.067771
Ni	      8.19096     14.05521     -2.19069        -0.105439     -0.006096      0.038856
Ni	     16.37855      8.07550     -4.08984         0.091045     -0.013699      0.152475
Ni	     16.31470     12.10903     -8.12628         0.082438     -0.142039      0.056043
Ni	      8.25320      6.02302     -2.05357        -0.116159     -0.035761      0.026418
Ni	      8.13195     10.14683     -6.23571        -0.038500     -0.038728     -0.010614
Ni	     16.39035     10.05415     -2.10985         0.123417     -0.148541      0.036507
Ni	     16.31854     14.08605     -6.14306         0.086356     -0.042017      0.190577
Ni	      8.22393      7.98481     -0.06629        -0.126888     -0.051403      0.043256
Ni	      8.12956     12.10274     -4.22943        -0.101387     -0.001690      0.071054
Ni	      1.94758      4.15927     -2.17904        -0.103342     -0.014379     -0.008882
Ni	      1.83406      8.25913     -6.26793        -0.034072     -0.067265     -0.037777
Ni	     10.28701      6.07964     -4.08145        -0.051177     -0.132904      0.015389
Ni	     10.19106     10.20488     -8.23851        -0.060518     -0.020716     -0.025322
Ni	      1.97026      6.12256     -0.17685        -0.092974     -0.003576      0.015287
Ni	      1.77213     10.27429     -4.31215        -0.052739      0.465158     -0.373790
Ni	     10.27729      8.08212     -2.09970        -0.082407     -0.206728      0.233687
Ni	     10.16243     12.17863     -6.26007        -0.004239      0.039429     -0.002636
Ni	      1.96684      8.12736      1.80468        -0.097079      0.003119      0.004337
Ni	      1.81995     12.22753     -2.30485        -0.038636      0.040175      0.064061
Ni	     10.31682      9.99013     -0.07529        -0.022843      0.018269      0.169015
Ni	     10.20204     14.11437     -4.20467        -0.049172     -0.002294      0.002894
Ni	      4.05779      4.09824     -4.07250         0.065377      0.022871      0.022585
Ni	      3.93824      8.21144     -8.21881         0.052857     -0.006577     -0.011395
Ni	     12.38439      6.04538     -6.02086         0.077035      0.064433     -0.038982
Ni	     12.28206     10.14283    -10.12688         0.026821      0.002298     -0.018893
Ni	      4.05112      6.06219     -2.10695         0.080167     -0.004949     -0.006058
Ni	      3.93603     10.18198     -6.20402         0.022269      0.006912     -0.121794
Ni	     12.37857      7.99846     -4.00473         0.171491     -0.245079      0.230800
Ni	     12.30231     12.08572     -8.10590         0.097077     -0.034734     -0.020578
Ni	      4.05426      8.05589     -0.12145         0.058191     -0.010175     -0.003152
Ni	      3.91766     12.17922     -4.27394         0.074573      0.094765      0.013378
Ni	     12.42325      9.98331     -1.99977         0.124553     -0.320251      0.357935
Ni	     12.31226     14.06103     -6.10327         0.061325      0.016996      0.036258
Ni	      6.09917      6.11406     -4.12529         0.117439      0.033345     -0.017058
Ni	      5.99916     10.22700     -8.28533         0.071410      0.022526     -0.079600
Ni	     14.40272      8.11915     -6.10337        -0.065054      0.031416     -0.159738
Ni	     14.33868     12.16284    -10.15757        -0.074971      0.123553      0.008006
Ni	      6.06909      8.11161     -2.17722         0.129063      0.024366     -0.009061
Ni	      6.05207     12.20938     -6.31015         0.099444      0.075806     -0.034531
Ni	     14.41581     10.09954     -4.12517        -0.112039      0.131567     -0.128198
Ni	     14.33490     14.14221     -8.17361        -0.197402      0.068399     -0.070441
Ni	      6.08765     10.08966     -0.16251         0.088547      0.027980     -0.038817
Ni	      6.00506     14.18881     -4.32187         0.085944      0.037762     -0.029530
Ni	     14.41839     12.07347     -2.13904        -0.050463      0.184334     -0.030449
Ni	     14.34144     16.11897     -6.19159        -0.049888     -0.001790     -0.114001
O	      4.06570      4.17190     -2.17970         0.098305     -0.123359      0.110904
O	      3.92115      8.29387     -6.15383         0.141565     -0.100786      0.073746
O	     12.16406      6.12793     -4.15685         0.041245     -0.645647      0.019002
O	     12.08150     10.22914     -8.27391         0.107420     -0.103249      0.126846
O	      4.06955      6.04050     -0.22527         0.119587     -0.112806      0.131183
O	      3.93174     10.28673     -4.29991        -0.119736     -0.160095      0.162962
O	     12.12413      8.12084     -2.13326        -0.281420     -0.615217      0.581203
O	     12.01954     12.20447     -6.23353         0.100176     -0.129300      0.135988
O	      4.07480      8.16747      1.88682         0.121314     -0.129941      0.082372
O	      3.94530     12.25978     -2.35504         0.123624     -0.107691      0.114789
O	     12.27498     10.13968     -0.13972         0.060514     -0.043365      0.717945
O	     12.08045     14.21815     -4.24089         0.123825     -0.102613      0.102787
O	      5.99258      4.19482     -4.13636         0.084392     -0.129338      0.142522
O	      5.93249     14.25081     -2.39929         0.074917     -0.105343      0.109394
O	     14.49078      6.22887     -6.20192        -0.046579     -0.059407      0.047203
O	     14.38546     10.26601    -10.25052         0.151962     -0.119153      0.112536
O	      6.01002      6.18233     -2.21012         0.075084     -0.115544      0.130103
O	      6.04454     10.29559     -6.38359        -0.025501     -0.152142      0.175189
O	     14.49534      8.20728     -4.20731        -0.141852     -0.039735      0.119187
O	     14.40581     12.24112     -8.25907         0.060299     -0.052816      0.089644
O	      5.99976      8.18782     -0.25020         0.060988     -0.103055      0.115819
O	      6.16725     12.28545     -4.39141        -0.030202     -0.120988      0.109926
O	     14.51263     10.17820     -2.23542        -0.175992     -0.125788      0.045784
O	     14.41259     14.22070     -6.27330         0.089060     -0.093459      0.058543
O	      4.07944      5.97863     -3.98193        -0.091331      0.118952     -0.125462
O	      3.92931     10.11901     -8.13060        -0.044010      0.105735     -0.115835
O	     12.52538      7.93348     -5.92906        -0.016814      0.129943     -0.747787
O	     12.47206     12.02478    -10.02656        -0.102575      0.051627     -0.086781
O	      4.07347      7.92527     -2.11041        -0.132847      0.133216     -0.084509
O	      4.04777     12.07352     -6.17068        -0.097560      0.092021     -0.137099
O	     12.55525      9.87987     -3.88757         0.224204      0.863914     -0.920680
O	     12.48448     13.96022     -7.98177         0.039992      0.117533     -0.119238
O	      4.09571     10.04571      0.01395        -0.068019      0.128189     -0.127462
O	      3.95610     14.06265     -4.32352        -0.056626      0.162611     -0.085810
O	     12.55391     11.89815     -1.95121        -0.036191      0.817215     -0.175741
O	     12.46904     15.97844     -6.05018        -0.092358      0.077450     -0.069482
O	      6.17954      7.83526      4.04714        -0.000070      0.142677     -0.141532
O	      6.16938      6.00857     -5.99524         0.023525      0.142873     -0.157913
O	     14.42938      3.75605     -3.72441         0.009199      0.156229     -0.172705
O	     14.30939      7.95195     -7.92606         0.096142      0.154430     -0.164476
O	      6.18566      3.86735      0.05860         0.004528      0.133346     -0.161729
O	      6.21435      7.99213     -4.03900         0.021037      0.155994     -0.183358
O	     14.42347      5.73673     -1.73475         0.051842      0.185146     -0.091132
O	     14.32159      9.94146     -5.94754         0.005528      0.171108     -0.119913
O	      6.23591      5.84952      2.04346         0.003572      0.149420     -0.149583
O	      6.14308      9.97977     -2.09287         0.027279      0.175504     -0.162631
O	     14.43032      7.71902      0.24647         0.038139      0.063351     -0.147112
O	     14.33262     11.92312     -3.96120         0.015213      0.127216     -0.164619
O	     16.43511      6.25205     -4.25084        -0.000363     -0.133024      0.186622
O	     -0.06791      6.30923     -4.30662        -0.054316     -0.130426      0.121167
O	      8.22055      4.13199     -2.13189        -0.001298     -0.150088      0.149525
O	      8.12593      8.25412     -6.26396        -0.015259     -0.123543      0.159219
O	     16.45269      8.23064     -2.26865         0.022256     -0.076300      0.085761
O	     -0.06867      8.28338     -2.33458        -0.011328     -0.108822      0.152254
O	      8.09791      6.12872     -0.19454        -0.026917     -0.157851      0.177452
O	      8.00907     10.24023     -4.37080        -0.009800     -0.188072      0.158804
O	     16.45418     10.21710     -0.28544         0.001245     -0.181790      0.132769
O	     -0.06074     10.25218     -0.35260        -0.064193     -0.092204      0.089956
O	      8.16035      8.05600      1.83188        -0.012830     -0.152771      0.157192
O	      8.11174     12.19442     -2.20027        -0.005151     -0.185675      0.096875
O	      1.77744      4.21826     -0.28966         0.003397     -0.119794      0.089862
O	      1.69073      8.37650     -4.38111        -0.015871     -0.866417      0.090588
O	     10.25765      6.20513     -2.19216         0.087327     -0.055125      0.144972
O	     10.14012     10.29922     -6.36548         0.028311     -0.160121      0.194127
O	      1.79466      6.23540      1.72977        -0.000151     -0.090305      0.114420
O	      1.70067     10.33730     -2.41630        -0.009860     -0.141837      0.895988
O	     10.21877      8.04770     -0.21499         0.117913     -0.127551      0.025211
O	     10.02054     12.06819     -4.37088         0.107849     -0.093667      0.129029
O	      1.77593      2.25180     -2.24139         0.114183     -0.078422      0.088523
O	      1.72357      6.37819     -6.37239         0.068798     -0.092864      0.076282
O	     10.32265      9.95442      1.79632         0.013839     -0.127525      0.119531
O	     10.23923     14.09137     -2.31632         0.047311     -0.082085      0.150333
O	     16.30307      7.99188     -5.98247        -0.008546      0.098206     -0.095599
O	     16.22233     12.01794    -10.01972        -0.010467      0.040968     -0.045869
O	      8.30685      5.91343     -3.96279        -0.053112      0.137552     -0.122275
O	      8.19860     10.02714     -8.14952        -0.062131      0.108764     -0.110855
O	     16.32006      9.97093     -4.00559        -0.062215      0.067115     -0.075735
O	     16.21035     14.00414     -8.03941         0.086786      0.041205     -0.070363
O	      8.31813      7.95786     -2.00323        -0.030917      0.155610     -0.169760
O	      8.24097     12.07123     -6.31097        -0.116332      0.118867     -0.092745
O	     16.31657     11.94871     -2.01812        -0.014437      0.095424     -0.085737
O	     16.22322     15.97898     -6.04628        -0.019732      0.052010     -0.019494
O	      8.19375      9.87085      0.04196        -0.028503      0.148828     -0.159855
O	      8.23368     14.02014     -4.10588        -0.073390      0.122718     -0.115119
O	      2.21697      4.04288     -4.03369        -0.121279      0.100909     -0.109734
O	      2.03623      8.18325     -8.16988        -0.155597      0.064047     -0.059594
O	     10.27102      6.02464     -5.97272        -0.129192      0.132452     -0.133914
O	     10.20638     10.23484    -10.11748        -0.140142      0.084839     -0.152354
O	      2.21643      6.01649     -2.04504        -0.128363      0.107436     -0.106322
O	      1.96923     10.11499     -6.17210         0.116536      0.003034     -0.773499
O	     10.29532      8.15753     -3.97740         0.144371      0.099180     -0.141184
O	     10.25025     12.26953     -8.13034        -0.159406      0.089624     -0.127965
O	      2.20804      7.98232     -0.04889        -0.082526      0.113071     -0.108982
O	      1.92573     12.12762     -4.15047        -0.069419      0.744677     -0.019793
O	     10.27717      9.96029     -1.95376         0.169387      0.115537     -0.194898
O	     10.18746     14.06054     -6.10700        -0.109067      0.112702     -0.136709
