# total energy = -584.79701030 eV
 
CRYSTAL
PRIMVEC
-0.001441 4.023890 4.024430 
17.271958 4.030111 -4.036872 
-0.006220 8.068059 -8.068783 
PRIMCOORD
122 1
Li	      8.58987      2.04149     -2.04126        -0.009719      0.010281     -0.016891
Li	      8.59607     10.08494     -2.05073         0.015627      0.017975     -0.012360
Li	      0.25811     11.94352     -4.13592         0.042366      0.016748     -0.025492
Li	      0.25173      4.13221     -3.87393         0.038877      0.015069     -0.027522
Li	      8.58614      4.05121     -0.03295        -0.006303      0.017786     -0.009952
Li	      8.60313      8.08233     -4.05112         0.014634      0.016512     -0.016633
Li	      0.25923     10.16762     -5.90962         0.042560      0.019882     -0.019491
Li	      0.25068      5.88427     -2.12412         0.036442      0.025084     -0.018602
Li	      2.42277      2.05270     -0.03975        -0.026534     -0.004354      0.003686
Li	      2.11838      6.06396     -4.05508         0.020105     -0.000114     -0.003470
Li	     10.69139      4.02372     -2.01046        -0.019282      0.011750     -0.009276
Li	     10.62758      8.00830     -6.00278         0.002622     -0.020849      0.022297
Li	      2.13522      4.05491      1.97831         0.018338     -0.013131      0.007734
Li	      2.42582      8.10816     -2.07225        -0.033196      0.015681     -0.014390
Li	     10.61789      6.02984      0.00024        -0.008748      0.008238     -0.006765
Li	     10.66662     10.03508     -4.00001        -0.050774     -0.009708      0.009420
Li	      4.42625      6.05149      1.98873        -0.025727      0.007433     -0.013451
Li	      4.43529      6.07377     -6.05000        -0.027478      0.013320     -0.011402
Li	     12.66597      8.01102     -0.01766        -0.034579     -0.039970      0.055443
Li	     12.68884      8.01392     -7.99500        -0.037316      0.025079     -0.024123
Li	      4.42757      4.04836     -0.01465        -0.022312      0.011418     -0.009878
Li	      4.43361      8.05899     -4.06373        -0.027470      0.012138     -0.011896
Li	     12.67014      6.01096     -1.94723        -0.042617      0.010676     -0.009909
Li	     12.68434     10.03169     -6.04480        -0.030387     -0.032072      0.048891
Li	      6.53120      4.01120     -1.99929        -0.014794     -0.019066      0.017573
Li	      6.53254      8.03952     -6.02905        -0.006874     -0.021614      0.022319
Li	     14.79799      6.16675     -4.16398         0.017910     -0.019132      0.029318
Li	     15.16001     10.19167     -8.18122         0.038940     -0.035139      0.027062
Li	      6.53105      6.02553      0.00995        -0.025741     -0.019734      0.018242
Li	      6.52323     10.05243     -4.01821        -0.011405     -0.019838      0.018511
Li	     15.20819      8.16216     -2.12756         0.024872     -0.030759      0.032378
Li	     14.78517     12.22404     -6.19584         0.041104     -0.024510      0.037235
Ni	      0.01041      6.03490      1.83329         0.084834     -0.018158      0.133557
Ni	     17.23815     10.27099    -10.06820         0.104588     -0.140747     -0.021421
Ni	      8.65121      8.03618      0.00586        -0.057977     -0.026583      0.039992
Ni	      8.63530      8.05274     -8.05576        -0.015448     -0.045242      0.049185
Ni	     -0.00104      4.20286     -0.00031         0.101067     -0.135574      0.005604
Ni	     17.24825     12.07072     -8.26617         0.098854      0.012706      0.137566
Ni	      8.65355      6.03008     -2.00274        -0.054844     -0.040792      0.027696
Ni	      8.63371     10.06409     -6.04262        -0.028890     -0.049774      0.044915
Ni	      2.18327      4.04044     -2.02797        -0.009207      0.002693     -0.017564
Ni	      2.21960      8.07399     -6.06432        -0.049085     -0.013073      0.017769
Ni	     10.81093      6.04184     -4.03795        -0.104207     -0.011387      0.006798
Ni	     10.80873     10.08444     -8.06910        -0.116851     -0.014238      0.003235
Ni	      2.23532      6.05556     -0.02127        -0.041913     -0.013545      0.018095
Ni	      2.17423     10.08090     -4.04539        -0.008674      0.010697     -0.014119
Ni	     10.81072      8.06523     -2.02373        -0.102888     -0.004434      0.006922
Ni	     10.80332     12.08640     -6.06008        -0.107930      0.005857      0.013485
Ni	      4.32045      4.04280     -4.03325        -0.001892     -0.015869     -0.003102
Ni	      4.30665     12.09156     -4.04564         0.002659      0.009614     -0.013894
Ni	     12.96434     10.04860     -2.01499        -0.023647      0.070133     -0.027599
Ni	     12.93574     10.06483    -10.06831        -0.018004      0.013504      0.000488
Ni	      4.31956      6.04427     -2.03189        -0.001215      0.004246      0.013157
Ni	      4.30773     10.08016     -6.05695         0.003355      0.012480     -0.007213
Ni	     12.93374      8.04744     -4.01363         0.010885      0.012473     -0.011537
Ni	     12.96345     12.07598     -8.05663        -0.062222      0.061018     -0.006357
Ni	      6.48267      6.06321     -4.05267         0.023717      0.034833     -0.037926
Ni	      6.46897     10.09672     -8.08690         0.014250      0.048304     -0.043620
Ni	     15.15295      7.92683     -5.92781         0.085248      0.235349     -0.221582
Ni	     15.01453     12.00237     -9.98559         0.026819      0.184553     -0.179423
Ni	      6.47738      8.07604     -2.04182         0.000223      0.031272     -0.027020
Ni	      6.46410     12.10965     -6.07534         0.000912      0.044335     -0.046292
Ni	     15.06402      9.96479     -3.92308         0.070655      0.176526     -0.184335
Ni	     15.15883     13.98529     -7.96352         0.087680      0.234776     -0.226525
O	      4.30496      4.12390     -2.11121         0.071618     -0.113847      0.116508
O	      4.30656      8.15458     -6.14376         0.091727     -0.117762      0.114656
O	     12.93748      6.01344     -4.10961         0.147476      0.007489      0.188569
O	     12.96326     10.15748     -8.04552         0.171913     -0.227787      0.028027
O	      4.30999      6.14548     -0.10933         0.102325     -0.102111      0.098374
O	      4.28066     10.17635     -4.14107         0.092808     -0.116443      0.117873
O	     12.99357      8.13375     -1.99497         0.127402     -0.222210     -0.012078
O	     12.92983     12.06178     -6.12835         0.139664     -0.039619      0.196378
O	      6.47393      4.14733     -4.14754         0.021252     -0.102602      0.105710
O	      6.46861     12.20182     -4.16074         0.014284     -0.112359      0.108595
O	     15.23407      5.99011     -5.97217        -0.113712     -0.144135      0.143398
O	     15.16110     14.05287     -6.02633        -0.103612     -0.159028      0.155087
O	      6.47420      6.15818     -2.13657         0.021988     -0.107100      0.102690
O	      6.46841     10.19515     -6.16737         0.016215     -0.108780      0.108503
O	     15.19965      7.98873     -3.98724        -0.122437     -0.146326      0.136184
O	     15.19536     12.05041     -8.01087        -0.100840     -0.145765      0.148622
O	      4.37984      5.94740     -3.93801        -0.064443      0.131960     -0.131857
O	      4.38046      9.98687     -7.97673        -0.063489      0.103147     -0.107108
O	     13.19530      7.98194     -6.06409        -0.145617      0.147419      0.016861
O	     13.07866     12.09992     -9.99159        -0.150203      0.024913     -0.187120
O	      4.35821      7.97387     -1.93993        -0.049507      0.107440     -0.113364
O	      4.32500     11.99722     -5.96345        -0.049159      0.121016     -0.120776
O	     13.13838     10.08541     -3.95671        -0.161272     -0.015385     -0.164765
O	     13.20060     14.02825     -8.08761        -0.145139      0.166371     -0.022040
O	      6.48474      1.92031     -1.92252        -0.002883      0.130571     -0.132280
O	      6.48838      5.95668     -5.95818         0.002865      0.128702     -0.126290
O	      6.48377      3.93281      0.09069        -0.002009      0.132038     -0.128480
O	      6.48795      7.96824     -3.94684         0.003814      0.124472     -0.126488
O	     17.16990     10.07366     -8.07984        -0.078259     -0.139441      0.141490
O	      8.63168      4.12332     -2.11117        -0.001269     -0.132126      0.126117
O	      8.60989      8.15407     -6.14698         0.014321     -0.113324      0.117057
O	     17.26828      8.05819     -2.03938        -0.074608     -0.118058      0.130548
O	      8.58601      6.12801     -0.09580         0.008811     -0.117052      0.124921
O	      8.60352     10.17567     -4.14059         0.025975     -0.121044      0.116083
O	      2.02119      4.06403     -0.13358         0.055251     -0.160686      0.140195
O	      2.00559      8.10386     -4.16385         0.054665     -0.175840      0.139676
O	     10.73891      6.15591     -2.04676         0.126488     -0.117804      0.173254
O	     10.72513     10.16451     -6.14887         0.120086     -0.180717      0.189102
O	      2.02656      2.14483     -2.05195         0.063320     -0.137685      0.156612
O	      2.00333      6.17533     -6.09369         0.045638     -0.146066      0.173155
O	     10.72553      8.07348     -0.11078         0.120976     -0.172214      0.114637
O	     10.74484      8.16545     -8.16441         0.107162     -0.199646      0.188990
O	     17.12733      8.02505     -6.01841         0.011250      0.109896     -0.109820
O	     16.86340     12.37369    -10.37489         0.137426      0.060638     -0.055378
O	      8.64600      5.93483     -3.92377        -0.025097      0.094933     -0.093881
O	      8.63301      9.97023     -7.96191        -0.014509      0.120258     -0.120939
O	     16.92236     10.33410     -4.30982         0.134627      0.064523     -0.061316
O	     17.14204     14.06101     -8.03069        -0.001733      0.093478     -0.097906
O	      8.61791      7.94961     -1.91442         0.044379      0.104547     -0.107641
O	      8.63045     11.98513     -5.95055         0.002906      0.116705     -0.113313
O	      2.21366      4.01002     -3.94401        -0.106163      0.182134     -0.133617
O	      2.20306      8.06586     -7.95200        -0.100174      0.155543     -0.159861
O	     10.85520      9.97832     -2.00240        -0.015678      0.106153     -0.174349
O	     10.84237     14.00641     -5.96727         0.001026      0.192569     -0.200660
O	      2.21232      5.95546     -1.99996        -0.108056      0.142061     -0.182132
O	      2.20278      9.96143     -6.05471        -0.100064      0.157654     -0.152882
O	     10.85329      8.03412     -3.93831         0.008816      0.164300     -0.101451
O	     10.83669     12.00531     -7.97770        -0.012540      0.200998     -0.197623
