# total energy = -583.70699484 eV
 
CRYSTAL
PRIMVEC
0.001416 4.132820 4.105089 
16.732633 4.115745 -4.082443 
-0.001157 8.215421 -8.159184 
PRIMCOORD
122 1
Li	      8.63719     10.09639     -9.99916         0.009760      0.039746     -0.018475
Li	      8.36657      6.25487     -6.15867        -0.010235      0.032084     -0.018338
Li	      0.03129      8.05193     -7.93536         0.005462      0.034716     -0.016612
Li	     16.66447     12.39494     -4.11105        -0.007816      0.002886     -0.021112
Li	      8.62903     12.16525     -7.95958         0.012730      0.028425     -0.035744
Li	      8.34876      8.32171     -4.15978         0.005185      0.024176     -0.028575
Li	      0.04711     10.10827     -5.86569         0.015915      0.017859     -0.029041
Li	     16.66329     10.31105     -6.18127         0.004877      0.022692     -0.016372
Li	      2.28433      2.04440      0.04553        -0.013093      0.010308     -0.009973
Li	      2.04156      6.12318     -4.08513         0.016507     -0.018997      0.012201
Li	     10.77728      4.21571     -2.09421        -0.014160     -0.000131      0.001803
Li	     10.40856      8.26835     -6.12472         0.021764      0.006950     -0.012647
Li	      2.28188      4.15952      2.06049        -0.009693     -0.011706      0.013125
Li	      1.98508      8.07051     -1.94228         0.001536      0.017181     -0.014170
Li	     10.75937      6.24182     -0.04199        -0.004958     -0.009720      0.007004
Li	     10.33558     10.29490     -4.09103         0.013688      0.032349     -0.021767
Li	      3.89830      6.14718      2.10171         0.008792      0.009923     -0.005730
Li	      4.22970      6.15655     -6.07216         0.001612     -0.014759      0.028549
Li	     12.61991      8.26827     -0.02108        -0.003961     -0.003567     -0.001846
Li	     12.54789     12.31696     -4.11466        -0.014045      0.009445     -0.023271
Li	      3.89170      4.07975      0.06494         0.001772      0.014188     -0.019503
Li	      4.22540      8.27212     -4.05618         0.017157     -0.028001      0.024663
Li	     12.63565      6.22090     -2.04220        -0.009381      0.010771     -0.008574
Li	     12.63768     10.30224     -6.15593        -0.016389      0.007354     -0.019175
Li	      5.98934      4.25984     -2.21407        -0.003883     -0.037414      0.024154
Li	      6.41764      8.14120     -6.03622        -0.004179     -0.022664      0.026154
Li	     14.42146      6.16393     -4.03366         0.000584     -0.011063      0.033138
Li	     14.65729     10.17280     -8.12733        -0.021315     -0.028624     -0.016031
Li	      6.02099      6.32245     -0.14493        -0.009651     -0.047355      0.022350
Li	      6.35025     10.20608     -3.98771         0.003815     -0.016703      0.021561
Li	     14.44724      8.20144     -1.99756        -0.024190     -0.010876      0.003032
Li	     14.68032     12.32128     -6.11913        -0.025393     -0.016865      0.021924
Ni	     16.66069      6.29770     -6.23513        -0.025541     -0.216114      0.216590
Ni	      0.03318     10.23618     -1.99969        -0.048198     -0.035776      0.023249
Ni	      8.42270      8.35847     -0.09434         0.115544     -0.191481      0.188456
Ni	      8.32794     12.36435     -4.07663         0.044449     -0.022032      0.029875
Ni	     16.68566      8.37369     -4.18937        -0.042471     -0.213815      0.229245
Ni	      0.03051      8.16165     -4.05001        -0.045543     -0.063214      0.042284
Ni	      8.37904      6.30918     -2.13875         0.096209     -0.196327      0.195253
Ni	      8.30318     10.31395     -6.14292         0.024429     -0.013405      0.022263
Ni	      2.02870      4.09607     -2.04368         0.025859     -0.013133      0.019538
Ni	      2.04714      8.24278     -6.08662        -0.047597      0.006550     -0.010944
Ni	     10.44238      6.21482     -4.09715        -0.002188     -0.017354      0.024213
Ni	     10.53985     10.34513     -8.21355        -0.034488      0.003745      0.004269
Ni	      2.03283      6.14528      0.03952        -0.011743     -0.030394      0.023960
Ni	      2.07607     10.30092     -4.02258        -0.036440     -0.013964     -0.009140
Ni	     10.44835      8.25492     -2.03754         0.002697     -0.051060      0.037250
Ni	     10.51729     12.42227     -6.18067        -0.042855      0.032973     -0.004494
Ni	      4.15269      8.14965      0.07985         0.089642     -0.008843      0.011682
Ni	      4.13025      8.20645     -8.11011         0.000928      0.006511     -0.011364
Ni	     12.52026      6.17259     -6.11585         0.040924      0.011502     -0.005852
Ni	     12.64061     14.43622     -6.14295        -0.005945      0.007184     -0.013249
Ni	      4.14448      6.10565     -1.97324         0.074714     -0.007406      0.002259
Ni	      4.13152     10.27004     -6.07031         0.039043     -0.004891     -0.011125
Ni	     12.51319      8.24198     -4.05554         0.074466      0.017161     -0.001173
Ni	     12.63382     12.38319     -8.19097         0.014144      0.000291     -0.020120
Ni	      6.30797      6.14719     -4.04985        -0.019794      0.000933      0.009285
Ni	      6.19652     10.12987     -8.01480         0.005462      0.204265     -0.190486
Ni	     14.60751      8.24129     -6.13756        -0.040579      0.012854     -0.042986
Ni	     14.70979     12.42725    -10.27436         0.035505      0.033289     -0.032473
Ni	      6.31389      8.23400     -1.99245        -0.010147     -0.023327      0.013997
Ni	      6.18103     12.20955     -5.95046        -0.044561      0.174988     -0.186553
Ni	     14.61670     10.30841     -4.10972         0.009291      0.040034     -0.024062
Ni	     14.74868     14.48545     -8.22283         0.007493      0.052581     -0.062263
O	      4.13272      4.06323     -2.07745         0.049970     -0.177382      0.141531
O	      3.91147      8.27077     -6.10279         0.275888     -0.118825      0.043997
O	     12.47048      6.28830     -4.10064         0.068223     -0.136953      0.127540
O	     12.58361     10.46977     -8.25945         0.107070     -0.171897      0.113687
O	      4.16343      6.19661      0.05691         0.057694     -0.145289      0.173210
O	      3.95560     10.32727     -4.06535         0.208804     -0.036099      0.097424
O	     12.50496      8.28626     -2.13876         0.080380     -0.136114      0.170790
O	     12.56764     12.42289     -6.28495         0.097887     -0.117365      0.187229
O	      6.53885      8.05733      0.16688        -0.184586     -0.065157      0.063659
O	      6.21253      8.19582     -8.11645         0.012876     -0.151064      0.152256
O	     14.70906      6.30086     -6.03941        -0.094832     -0.139227      0.014332
O	     14.76739     14.52000     -6.29175        -0.027454     -0.091582      0.180020
O	      6.48061      6.01005     -1.90946        -0.136516     -0.074444      0.059884
O	      6.24770     10.26544     -6.07702         0.027840     -0.130386      0.151180
O	     14.72176      8.34713     -4.08290        -0.068390     -0.159893      0.100855
O	     14.81644     12.55217     -8.23899        -0.062583     -0.137588      0.097557
O	      4.31095      5.91453     -3.94484        -0.070490      0.154647     -0.177742
O	      4.26435     10.29057     -8.13793        -0.152236      0.014224     -0.063599
O	     12.55256      8.17751     -5.95356        -0.040236      0.172547     -0.189445
O	     12.69010     12.33812    -10.11659        -0.056373      0.124833     -0.176690
O	      4.37340      8.09041     -1.82356        -0.126065      0.136781     -0.137443
O	      4.24228     12.32339     -6.08084        -0.158241      0.090089     -0.016477
O	     12.70071     10.18296     -4.00950        -0.095822      0.118185     -0.122531
O	     12.71359     14.31513     -8.14637        -0.075364      0.170882     -0.100883
O	      6.25711      6.06663     -5.99000         0.025285      0.146206     -0.123205
O	     14.82121      8.20299     -0.03288         0.017454      0.148871     -0.102609
O	     14.54466     12.20325     -4.00027         0.016471      0.198092     -0.123828
O	      6.20665      8.12659     -3.93515         0.008681      0.093161     -0.125724
O	     14.87637      6.24277     -1.99926         0.019106      0.091498     -0.157597
O	     14.60951     10.11609     -6.12898         0.017308      0.230090     -0.037936
O	     16.69604     10.25256     -8.33204        -0.020769     -0.079907      0.190059
O	      8.43543      8.34072     -6.20923        -0.023395     -0.111695      0.130820
O	      0.01488      8.24709     -2.17623         0.004842     -0.153029      0.160889
O	      8.36197     10.39743     -4.24050        -0.004382     -0.106528      0.095117
O	      1.88366      4.16761      0.07960         0.168490     -0.136950      0.064871
O	      1.99737      8.24185     -4.18189         0.122818     -0.086861      0.193394
O	     10.31888      6.27997     -2.02898         0.138114     -0.123554      0.079906
O	     10.29460     10.52215     -6.24253         0.008847     -0.153180      0.140047
O	      1.86637      6.12116      2.01152         0.151501     -0.072169      0.136170
O	      2.02694      6.34782     -6.14179         0.071624     -0.209989      0.097139
O	     10.37234      8.25376     -0.06961         0.131804     -0.030951      0.122902
O	     10.39296     12.49437     -4.28289         0.036239     -0.170883      0.152720
O	     16.69211      8.22390     -6.10519         0.001913      0.148515     -0.163661
O	      0.12626      8.18855     -5.99294        -0.152630      0.123312     -0.131530
O	      8.36133      6.15965     -4.07306        -0.004224      0.150723     -0.149103
O	      8.13239     10.39676     -8.22654         0.093070      0.079705     -0.079799
O	     16.58246     10.31146     -4.05971         0.060139      0.141781     -0.153047
O	      0.14926     10.28058     -3.92377        -0.105427      0.077026     -0.144960
O	      8.29650      8.24785     -2.03744         0.039567      0.143690     -0.138094
O	      8.05777     12.52877     -6.25768         0.148979      0.081972     -0.083140
O	      2.12353      8.05133      0.04239        -0.129495      0.168903     -0.082654
O	      2.00699      8.26343     -8.00051        -0.073192      0.086598     -0.196027
O	     10.47576     10.16833     -2.00721        -0.107481      0.180647     -0.102310
O	     10.50082     14.37114     -6.13242        -0.077013      0.131934     -0.166279
O	      2.12531      6.10526     -1.87160        -0.120783      0.078529     -0.161842
O	      2.01204     10.17076     -6.05037        -0.071587      0.195986     -0.072138
O	     10.47769      8.23427     -3.93871        -0.126181      0.081549     -0.184617
O	     10.48131     12.37447     -8.12596        -0.094664      0.139054     -0.144362
