# total energy = -582.79629242 eV
 
CRYSTAL
PRIMVEC
0.004154 4.009424 4.042206 
17.164866 4.142444 -4.157552 
0.086390 8.074902 -8.141003 
PRIMCOORD
122 1
Li	      8.56370      6.09059      1.93922        -0.001066      0.018660     -0.021697
Li	      8.61838      6.13594     -6.15463         0.009943      0.017474     -0.005049
Li	      0.28830     11.93852     -4.01270        -0.061919      0.070538     -0.000836
Li	     17.17138      8.30457     -8.10292         0.022987      0.027921     -0.014678
Li	      8.58062      4.08273     -0.08780        -0.000202      0.018428     -0.024455
Li	      8.61143      8.14033     -4.13958         0.009742      0.010157     -0.017888
Li	      0.34907     10.00235     -6.04927        -0.009221     -0.003867     -0.062992
Li	     17.06286     10.12151     -6.33248         0.015015      0.017811     -0.031666
Li	      2.46623      2.11430     -0.12667        -0.028970      0.025629     -0.021497
Li	      2.06364      6.11739     -4.12829         0.003559     -0.006143      0.008035
Li	     10.54901      4.02201     -2.06204         0.001467      0.005535     -0.015608
Li	     10.78230      8.10291     -6.11663         0.007710     -0.016810      0.013541
Li	      2.46170      4.12087      1.94153        -0.010768      0.031717     -0.039219
Li	      2.40042      8.18276     -2.13948        -0.016758     -0.012722      0.001459
Li	     10.57202      6.02838     -0.04081        -0.015289      0.016627     -0.007070
Li	     10.71615     10.11587     -4.07684        -0.009909     -0.023786      0.020898
Li	      4.41890      2.09741     -2.09269        -0.003440      0.008383     -0.011930
Li	      4.48241      6.15459     -6.19073         0.012862      0.000782     -0.001502
Li	     12.62244      8.00402     -0.02799         0.031282      0.043625     -0.001807
Li	     12.90505      8.10904     -8.09800        -0.015433     -0.038228      0.019849
Li	      4.40080      4.11446     -0.07056        -0.005826     -0.000668      0.000091
Li	      4.42027      8.15662     -4.15942        -0.000864      0.008397     -0.010100
Li	     12.60873      6.03739     -2.03870        -0.067323      0.012140     -0.026888
Li	     12.99840     10.04669     -6.10987        -0.002785     -0.006821     -0.000595
Li	      6.48073      4.06654     -2.06442         0.005190     -0.017202      0.014566
Li	      6.54453      8.10235     -6.11983        -0.004827     -0.012706      0.013294
Li	     14.81214      6.28368     -4.20201        -0.000276     -0.036457      0.005047
Li	     15.06847      9.92148     -8.16216        -0.002492     -0.014108      0.051820
Li	      6.48633      6.07072     -0.03866        -0.001669     -0.016247      0.014738
Li	      6.55446     10.11298     -4.10046        -0.003862     -0.016339      0.012126
Li	     14.81251      8.27934     -2.23715        -0.015637     -0.030577      0.077731
Li	     14.71976     11.98555     -5.90023        -0.025193     -0.031725     -0.025676
Ni	      0.10256      6.13515      1.89019         0.151330     -0.196858      0.184937
Ni	     17.07948     10.34663    -10.35011         0.178340     -0.001387      0.043496
Ni	      8.59179      8.06910     -0.04930         0.018435     -0.034065      0.046284
Ni	      8.72360      8.10404     -8.12711        -0.058078     -0.055183      0.039380
Ni	      0.13566      4.18307     -0.12556         0.057283     -0.209136      0.224070
Ni	      0.12392      8.14889     -4.36472        -0.138132      0.006652      0.045423
Ni	      8.58992      6.06669     -2.06555        -0.000025     -0.051018      0.035338
Ni	      8.70478     10.10531     -6.11951        -0.027572     -0.032699      0.054104
Ni	      2.16418      4.13274     -2.11937         0.015563     -0.012579      0.011540
Ni	      2.34630      8.12878     -6.19587        -0.109371      0.002319      0.014337
Ni	     10.74584      6.07498     -4.08088         0.012303      0.008065     -0.008142
Ni	     10.84602     10.10370     -8.17744        -0.022146     -0.009234      0.012356
Ni	      2.16686      6.13323     -0.09148        -0.035627     -0.030902      0.031381
Ni	      2.24209     10.18000     -4.17584         0.000166      0.017789     -0.001804
Ni	     10.74469      8.07173     -2.05817         0.018473      0.013067      0.004096
Ni	     10.82806     12.12187     -6.14235        -0.052965     -0.008747      0.008808
Ni	      4.27767      4.12158     -4.13048         0.031470      0.003842      0.006460
Ni	      4.40698      8.14762     -8.20018         0.011433      0.001473     -0.005436
Ni	     12.87556      6.05314     -6.06218         0.027104     -0.010800     -0.002170
Ni	     13.00280     14.10640     -6.19399        -0.143931      0.178653      0.035412
Ni	      4.28088      6.12893     -2.10770         0.026192      0.003917      0.000385
Ni	      4.39986     10.15622     -6.16949         0.020454     -0.003080     -0.002267
Ni	     12.89034      8.05244     -4.03193         0.017266      0.003329      0.028774
Ni	     12.80113     12.11395     -8.22972         0.115157     -0.036589     -0.041130
Ni	      6.45294      6.13335     -4.13841         0.024436      0.046859     -0.043744
Ni	      6.54183     10.16637     -8.20695         0.042856      0.049028     -0.032117
Ni	     15.10232      8.11427     -6.10584        -0.031720     -0.011232     -0.035502
Ni	     14.97783     12.21379    -10.22094        -0.090661     -0.336859     -0.213111
Ni	      6.45746      8.13633     -2.11736         0.040379      0.046670     -0.042213
Ni	      6.53644     12.17985     -6.18415         0.075621      0.030078     -0.046387
Ni	     15.13981     10.09295     -4.13033        -0.045258     -0.053202      0.032993
Ni	     15.01305     13.96923     -8.23711        -0.019911      0.223599      0.168498
O	      4.26320      4.21325     -2.20674         0.067359     -0.119840      0.121118
O	      4.36245      8.16450     -6.29381         0.064594     -0.116343      0.099698
O	     12.91819      6.13457     -4.06209         0.122669     -0.131825      0.213550
O	     12.98834     10.14292     -8.34379         0.093884     -0.084935      0.210551
O	      4.28279      6.21384     -0.17866         0.057835     -0.134701      0.117602
O	      4.31952     10.25903     -4.17412         0.052098     -0.108575      0.119979
O	     12.95013      8.05641     -2.11394         0.087093     -0.183411      0.136450
O	     12.78744     12.20115     -6.22195         0.160581     -0.170329      0.042960
O	      6.43947      4.22079     -4.23667        -0.009389     -0.113180      0.115970
O	      6.57304     12.25902     -4.26878        -0.008663     -0.119480      0.116656
O	     15.43946      5.92053     -5.87420        -0.178242     -0.048349      0.035922
O	     15.17177     13.81319     -6.33612        -0.141516      0.467476     -0.173106
O	      6.43824      6.21876     -2.22295        -0.001328     -0.119635      0.117152
O	      6.55562     10.26677     -6.27708        -0.005284     -0.102308      0.118130
O	     15.37751      8.07561     -3.98823        -0.122268     -0.143926      0.070016
O	      4.30141      6.03110     -4.03045        -0.044241      0.143359     -0.134698
O	      4.45893     10.05440     -8.17072        -0.082849      0.086893     -0.109372
O	     13.03657      8.00311     -5.90482        -0.010807      0.192948     -0.185652
O	     13.15970     12.06415    -10.21455        -0.455885     -0.061277     -0.048952
O	      4.36464      8.04621     -2.01228        -0.060503      0.118095     -0.132997
O	      4.48307     12.14207     -6.06093        -0.110022      0.122116     -0.098102
O	     13.17482      9.93153     -3.96865        -0.043901      0.149142     -0.181054
O	     13.10963     14.09663     -8.14971         0.313246     -0.048526     -0.094660
O	      6.51450      1.99152     -1.97711         0.007476      0.126736     -0.128750
O	      6.50845      6.02639     -6.04240        -0.007185      0.120348     -0.122003
O	     15.00364     11.95490     -4.02408         0.000021      0.285216     -0.056967
O	      6.48025      3.99287      0.05110        -0.003698      0.111458     -0.125406
O	      6.48397      8.03652     -4.02764        -0.001984      0.121656     -0.120551
O	     15.03420     10.12325     -6.13860         0.036564      0.136963     -0.094152
O	     17.09565     10.40289     -8.33189        -0.049854     -0.260953      0.136872
O	      8.54827      4.16238     -2.18947        -0.014280     -0.115339      0.128236
O	      8.65082      8.20867     -6.21003        -0.026548     -0.134652      0.127135
O	      8.53999      6.16348     -0.15876        -0.011930     -0.119863      0.127760
O	      8.67244     10.21978     -4.21443        -0.020666     -0.123320      0.117935
O	      2.08304      4.18529     -0.06391         0.128569     -0.125442      0.111660
O	      2.07645      8.29366     -4.19416         0.132702     -0.129994      0.075673
O	     10.67714      6.16625     -2.11284         0.068874     -0.140562      0.201469
O	     10.84118     10.23260     -6.24480         0.055091     -0.136128      0.130697
O	      2.06603      6.10778      1.84163         0.119562     -0.135738      0.136487
O	      1.92518     10.17464     -2.29704         0.103738     -0.076551      0.143424
O	     10.69255      8.10773     -0.14699         0.068601     -0.200198      0.143242
O	     10.81573      8.20938     -8.14210         0.090367     -0.155705      0.079425
O	      0.05165      4.05002     -2.03148        -0.055453      0.135130     -0.163397
O	     16.77745     12.44234    -10.50269         0.571672      0.051429     -0.086453
O	      8.61161      5.98167     -3.98679        -0.045273      0.109199     -0.116953
O	      8.70881     10.00632     -8.03075        -0.026604      0.123740     -0.115141
O	     17.10746     10.27287     -4.22596         0.046203      0.130591     -0.151619
O	     16.90548     14.28266     -8.42915        -0.241341     -0.013691      0.006010
O	      8.60282      7.98522     -1.96775        -0.018097      0.111397     -0.117411
O	      8.80298     12.02972     -6.03009        -0.049517      0.110348     -0.112881
O	      2.16089      8.02645     -0.09182        -0.078201      0.170193     -0.138955
O	      2.16162     12.10318     -4.17482        -0.053244      0.120691     -0.081208
O	     10.81964      9.96845     -2.00670        -0.067944      0.137691     -0.189487
O	     10.83125     14.01964     -6.07057        -0.061833      0.129391     -0.140602
O	      2.17366      6.13526     -1.97864        -0.068957      0.151711     -0.185155
O	      2.21660     10.16350     -6.10709        -0.069614      0.063737     -0.123798
O	     10.82478      8.04900     -3.96010        -0.051245      0.185067     -0.155965
O	     10.79797     12.00315     -8.20449        -0.075328      0.170866     -0.082428
