# total energy = -584.89939917 eV
 
CRYSTAL
PRIMVEC
0.007114 4.026480 4.036076 
17.232876 4.089195 -4.069632 
0.017779 8.100114 -8.119069 
PRIMCOORD
122 1
Li	      8.58662      6.08445      1.97875        -0.013969      0.013464     -0.008337
Li	      8.62589     10.14898     -2.09166        -0.012760      0.012295     -0.015688
Li	      0.29304      8.25557     -7.99853        -0.020904      0.036145     -0.017346
Li	     17.15926     11.99746     -3.94570         0.004783      0.043998     -0.044272
Li	      8.57569      4.08171     -0.03295        -0.013165      0.005611     -0.013346
Li	      8.62549      8.13958     -4.10916        -0.015167      0.014406     -0.014637
Li	      0.31487     10.01541     -6.21814        -0.014757      0.022921     -0.020698
Li	      0.31600      5.92077     -1.81848        -0.030790      0.029518     -0.029602
Li	      2.16901      2.08639     -0.04120         0.035651      0.024955     -0.025885
Li	      2.41135      6.08943     -4.10429        -0.006554      0.005641      0.004201
Li	     10.58376      4.01817     -1.98526        -0.047776      0.008801     -0.000459
Li	     10.74356      8.11817     -6.11766         0.000065     -0.021862      0.014070
Li	      2.43618      4.08737      1.97972         0.036170      0.018632     -0.019262
Li	      2.41659      8.12813     -2.06216         0.022943      0.024257     -0.028390
Li	     10.59434      6.03866      0.01084        -0.048137      0.000916     -0.010755
Li	     10.71530     10.14087     -4.10037        -0.014329     -0.022300      0.037588
Li	      4.35848      2.06237     -2.04227         0.009234      0.016706     -0.007378
Li	      4.51749     10.14103     -2.08654         0.030675      0.008431     -0.020311
Li	     12.67600      4.05304     -4.02712         0.028934      0.010475     -0.018670
Li	     12.89012     12.09227     -4.06737        -0.007544     -0.030468      0.031118
Li	      4.36814      4.06829     -0.03351         0.018947      0.012897     -0.013889
Li	      4.47834      8.12767     -4.09150         0.049546      0.021345     -0.007973
Li	     12.67768      6.05190     -2.02966         0.007706     -0.001669      0.002718
Li	     12.64374     10.10904     -6.07632        -0.003029     -0.034092      0.025303
Li	      6.49370      4.03259     -2.00941        -0.006076     -0.016578      0.019130
Li	      6.56405      8.09317     -6.08042        -0.027563     -0.016938      0.012253
Li	     15.16408      6.27973     -4.22252         0.008894     -0.045902      0.039860
Li	     14.80147      9.99966     -8.25546         0.047616     -0.039337      0.021365
Li	      6.49073      6.04651      0.00995        -0.001231     -0.018965      0.020269
Li	      6.55866     10.10187     -4.06161        -0.021206     -0.009879      0.014720
Li	     14.78098      8.26872     -2.28324         0.017261     -0.018458      0.040188
Li	     14.80136     12.26985     -6.00185         0.027709     -0.029127      0.022643
Ni	      0.02131      2.14108     -1.99831        -0.001386     -0.169377      0.017680
Ni	      0.03225     10.27302     -2.31697        -0.031679     -0.151212      0.143291
Ni	      8.61948      8.07817     -0.01275        -0.036254     -0.073459      0.068630
Ni	      8.66734     12.12163     -4.07102        -0.055985     -0.027361      0.040843
Ni	      0.01524      4.03795     -0.10493        -0.009556     -0.008718      0.181148
Ni	      0.09388      8.31648     -4.20914        -0.021514     -0.138984      0.169874
Ni	      8.61431      6.06534     -2.03266        -0.044665     -0.075178      0.071079
Ni	      8.65478     10.11259     -6.08392        -0.066455     -0.042080      0.030095
Ni	      2.15678      4.08925     -2.07114         0.011315     -0.007089      0.021361
Ni	      2.26873      8.10745     -6.10396        -0.050823      0.016332     -0.005223
Ni	     10.78887      6.07936     -4.06158        -0.030507     -0.006327     -0.010549
Ni	     10.77854     10.14235     -8.13259        -0.078559     -0.016123      0.003068
Ni	      2.14435      6.11417     -0.03411         0.020471     -0.020116      0.007905
Ni	      2.23788     10.13239     -4.08935         0.027219     -0.030405      0.042178
Ni	     10.79387      8.08676     -2.04852        -0.042738      0.004913      0.006287
Ni	     10.78256     12.15558     -6.12393        -0.087976     -0.004574     -0.005980
Ni	      4.30022      4.08067     -4.07620         0.051922     -0.010612      0.018877
Ni	      4.33151      8.11272     -8.12068         0.050914      0.011652     -0.008213
Ni	     12.93594     10.09776     -2.02810         0.031526      0.009083     -0.028799
Ni	     12.82708     14.17824     -6.12873         0.067961     -0.005797      0.007727
Ni	      4.30312      6.10011     -2.05289         0.057279     -0.012119      0.001169
Ni	      4.33526     10.12734     -6.09667         0.054994      0.017819     -0.002258
Ni	     12.95410      8.07303     -4.06479        -0.005750      0.030087     -0.002191
Ni	     12.86256     12.15988     -8.13467         0.006062      0.054648     -0.070611
Ni	      6.47408      6.10966     -4.09147         0.012372      0.026704     -0.030257
Ni	      6.46840     10.15206     -8.14212         0.003800      0.067871     -0.070732
Ni	     15.06827      8.01983     -6.13585         0.003351      0.164929     -0.015319
Ni	     15.08426     12.00777     -9.88633         0.054145      0.146659     -0.136212
Ni	      6.48025      8.12233     -2.07320         0.024904      0.034114     -0.030777
Ni	      6.47553     12.16459     -6.12284         0.014623      0.076148     -0.074066
Ni	     15.09526     10.14493     -3.99472         0.004487      0.010054     -0.177185
Ni	     15.04995     13.96022     -8.00416         0.021301      0.135199     -0.161903
O	      4.25542      4.17384     -2.14349         0.031352     -0.147817      0.127359
O	      4.31127      8.18789     -6.18197         0.049052     -0.141030      0.171437
O	     12.98157      6.15449     -4.05332         0.072847     -0.154086      0.100343
O	     12.89390     10.27531     -8.14804         0.096120     -0.208751      0.071231
O	      4.26866      6.18857     -0.12476         0.036526     -0.156291      0.152499
O	      4.31954     10.19895     -4.15998         0.067894     -0.168751      0.161036
O	     12.93378      8.06884     -2.12515         0.097245     -0.083358      0.144923
O	     12.89560     12.16241     -6.25260         0.098531     -0.077920      0.220241
O	      6.45722      4.19081     -4.18592         0.004102     -0.109391      0.119105
O	      6.46762      8.23597     -8.23282         0.053677     -0.116659      0.123067
O	     15.21328     10.02272     -2.00705        -0.071226     -0.114080      0.107030
O	     15.33400     14.12872     -6.08841        -0.109518     -0.179776      0.165985
O	      6.45782      6.20276     -2.17171         0.014045     -0.118263      0.113205
O	      6.47176     10.24008     -6.22541         0.048510     -0.120046      0.120978
O	     15.17801      8.16913     -4.10934        -0.020324     -0.128604      0.119265
O	     15.46512     11.94591     -7.88924        -0.140718     -0.144293      0.146969
O	      4.34865      6.01056     -3.99359        -0.104910      0.157763     -0.154661
O	      4.32557     10.04314     -8.02025        -0.073917      0.171642     -0.165731
O	     13.04235      8.09205     -5.97261        -0.103812      0.097484     -0.152890
O	     13.17901     12.16868    -10.06114        -0.168201      0.047513     -0.127111
O	      4.38381      8.02830     -1.97290        -0.107303      0.171750     -0.153860
O	      4.40035     12.05740     -6.01519        -0.094387      0.123633     -0.165227
O	     13.07828      9.97905     -4.05348        -0.105216      0.142195     -0.117544
O	     13.15224     14.08533     -8.14712        -0.176139      0.133956     -0.052270
O	      6.45266      1.94823     -1.93037         0.013802      0.113347     -0.110985
O	      6.50758      6.00286     -5.99932         0.011849      0.124552     -0.112276
O	     15.10376     12.11664     -4.11976         0.016644      0.139644     -0.124030
O	      6.46109      3.95902      0.08336         0.010268      0.116855     -0.118921
O	      6.50449      8.01433     -3.98338         0.020453      0.113893     -0.121294
O	     17.23187      6.14945     -4.04928        -0.015228     -0.142184      0.127660
O	      8.57934      4.15489     -2.13748        -0.002735     -0.104353      0.102954
O	      8.64555      8.20408     -6.19958         0.017886     -0.116908      0.122868
O	      8.57338      6.17465     -0.12623        -0.007852     -0.102311      0.115319
O	      8.60671     10.21738     -4.17312         0.019485     -0.135173      0.129056
O	      2.05056      4.20697     -0.03639         0.087324     -0.148816      0.058673
O	      2.00266      8.21002     -4.08291         0.143919     -0.173670      0.055363
O	     10.70943      6.16255     -2.13710         0.120557     -0.150800      0.120428
O	     10.71300     10.24464     -6.13811         0.099723     -0.109113      0.111267
O	      2.05551      6.09281      1.87435         0.084922     -0.058435      0.145679
O	      1.93998     10.11540     -2.16636         0.155175     -0.050427      0.177763
O	     10.74429      8.17764     -0.11649         0.100775     -0.106844      0.148327
O	     10.78432     12.17827     -4.21343         0.070736     -0.149287      0.143271
O	     17.12884      8.25434     -6.16135         0.059345      0.110706     -0.100572
O	     17.02855     12.24547    -10.19341         0.093754      0.161199     -0.154073
O	      8.62221      5.96834     -3.95303         0.043329      0.132701     -0.128968
O	      8.63293     10.01465     -8.01084        -0.009408      0.110424     -0.106869
O	     17.16058     10.11368     -4.05962         0.025303      0.114727     -0.134151
O	     16.92339     14.42011     -8.38833         0.102737      0.132643     -0.142368
O	      8.62744      7.98541     -1.93248         0.024786      0.122752     -0.127848
O	      8.61688     12.03403     -5.98963         0.007466      0.112924     -0.111234
O	      2.11822      8.03110     -0.04965        -0.116510      0.171355     -0.069635
O	      2.21727     12.01326     -4.08211        -0.119367      0.242213     -0.049676
O	     10.84037     10.00790     -1.94992        -0.050553      0.150103     -0.115798
O	     10.79148     14.07874     -6.10227        -0.028316      0.122242     -0.107033
O	      2.16431      6.12114     -1.97548        -0.124735      0.051851     -0.152522
O	      2.23114     10.12577     -5.97081        -0.132653      0.056225     -0.251755
O	     10.82402      7.99642     -3.96712        -0.046430      0.120261     -0.161923
O	     10.79614     12.14437     -8.05044        -0.066656      0.118361     -0.121539
