# total energy = -584.68915510 eV
 
CRYSTAL
PRIMVEC
0.006510 4.016881 4.033257 
17.336851 4.076158 -4.066853 
0.034280 8.046218 -8.079085 
PRIMCOORD
122 1
Li	      8.60568      2.05197     -2.04704         0.008730      0.019846     -0.027432
Li	      8.60928      6.09259     -6.10238        -0.010516      0.011369     -0.006004
Li	      0.35754     11.91028     -3.93120         0.010878      0.046931     -0.030756
Li	      0.34108      4.17648     -3.90034         0.004714      0.023459     -0.017007
Li	      8.61628      4.05915     -0.03435         0.010744      0.019864     -0.024613
Li	      8.62463      8.09790     -4.08406        -0.008472      0.007721     -0.009213
Li	      0.30982      9.94095     -5.94067         0.019067      0.030387     -0.047023
Li	     17.23431     10.02498     -6.19167         0.024545      0.025479     -0.021045
Li	      2.49218      2.08366     -0.06186        -0.040290      0.018639     -0.011254
Li	      2.10142      6.11757     -4.02890         0.005343      0.000025      0.006914
Li	     10.68968      4.00544     -2.00190         0.005534     -0.014190      0.001865
Li	     10.73486      8.07044     -6.07134        -0.004833     -0.022606      0.022432
Li	      2.49452      4.07701      1.96204        -0.032019      0.018991     -0.004086
Li	      2.44382      8.10673     -2.07825        -0.021689      0.015158     -0.010207
Li	     10.67369      6.02014      0.02440         0.002722     -0.013516      0.004178
Li	     10.75031     10.08283     -4.05831        -0.005390     -0.028356      0.020091
Li	      4.50970      6.06289      1.98407        -0.028423      0.015625     -0.012913
Li	      4.46093      6.08295     -6.09871        -0.008201      0.016246     -0.012733
Li	     12.72092      8.02716      0.01536        -0.019833     -0.024278      0.016205
Li	     12.78553     12.05189     -4.01852        -0.003428     -0.016592      0.008808
Li	      4.49896      4.05534     -0.01520        -0.005294      0.026428     -0.018655
Li	      4.48814      8.09079     -4.08477         0.004953      0.002988     -0.005613
Li	     12.71766      6.01188     -1.97436         0.000479     -0.016823      0.013492
Li	     13.11480     10.02645     -6.10380        -0.012618      0.001812     -0.008679
Li	      6.54842      4.02656     -2.00675        -0.010505     -0.008384      0.007431
Li	      6.54199      8.04938     -6.04724        -0.014915     -0.008660      0.003067
Li	     14.89763      6.19333     -4.18203         0.035376     -0.032274      0.044009
Li	     15.32451     10.19001     -8.00517         0.010265     -0.024568      0.026778
Li	      6.55235      6.03114      0.00520        -0.013340     -0.007521      0.011431
Li	      6.55425     10.04929     -4.03734        -0.015317     -0.003634      0.010457
Li	     14.86957      8.24126     -2.15923         0.038533     -0.046371      0.032883
Li	     14.87028     11.96337     -6.22741         0.019200     -0.028215      0.012913
Ni	      0.05064      6.15616      1.86187         0.098167     -0.210157      0.220718
Ni	     17.32094     10.26750    -10.16726         0.053074     -0.145058     -0.020265
Ni	      8.67043      8.05353     -0.00731        -0.035950     -0.048159      0.041099
Ni	      8.70518      8.05635     -8.07362        -0.061516     -0.044404      0.046610
Ni	      0.11358      4.21844     -0.09889         0.088375     -0.177910      0.214102
Ni	     17.30946     12.15592     -8.31962         0.025754      0.019352      0.142431
Ni	      8.66594      6.04404     -2.02421        -0.031274     -0.039735      0.039826
Ni	      8.70960     10.06441     -6.05820        -0.025082     -0.046494      0.050556
Ni	      2.21427      4.07526     -2.03479        -0.006998     -0.028017      0.015071
Ni	      2.31704      8.06937     -6.08555        -0.044010      0.002854      0.004780
Ni	     10.83018      6.05664     -4.04852        -0.040836     -0.007555      0.018569
Ni	     10.88282     10.07346     -8.09755        -0.084001      0.002355      0.012820
Ni	      2.19479      6.08140     -0.02320         0.001257     -0.030113      0.051197
Ni	      2.22911     10.09483     -4.10144         0.000063      0.015169     -0.025189
Ni	     10.83160      8.07158     -2.02834        -0.042665     -0.014254      0.002614
Ni	     10.88187     12.08468     -6.07536        -0.078770     -0.018405     -0.004622
Ni	      4.33144      4.05208     -4.04901         0.033374      0.015708      0.002493
Ni	      4.39587     12.08318     -4.06623        -0.012046      0.012204     -0.002219
Ni	     13.00336      6.03740     -6.02568        -0.006280     -0.023802      0.031054
Ni	     13.02610     14.07278     -6.06887        -0.015475      0.028295     -0.064250
Ni	      4.33012      6.06139     -2.02682         0.030675      0.010672     -0.009120
Ni	      4.39104     10.08248     -6.07782        -0.010198     -0.005814     -0.012129
Ni	     12.91829      8.07008     -4.03606         0.064459     -0.011752      0.005718
Ni	     13.00210     12.06080     -8.08950         0.006534      0.018260     -0.021699
Ni	      6.49675      6.07549     -4.06981         0.015990      0.047855     -0.042901
Ni	      6.53792     10.10192     -8.10760         0.026943      0.029304     -0.038816
Ni	     15.22895      8.06081     -5.87957         0.059602     -0.011803     -0.142236
Ni	     15.08592     11.92246    -10.03154        -0.014409      0.185611     -0.211618
Ni	      6.50329      8.08353     -2.05278         0.041016      0.053763     -0.037450
Ni	      6.54304     12.10558     -6.09632         0.032185      0.047332     -0.031328
Ni	     15.22455      9.95338     -4.03119         0.038715      0.135623      0.019971
Ni	     15.16381     14.00206     -7.95692        -0.020482      0.208602     -0.231587
O	      4.31645      4.14032     -2.11979         0.085211     -0.133483      0.114577
O	      4.35063      8.17120     -6.10812         0.093322     -0.080185      0.137458
O	     13.00659      6.04511     -4.10213         0.093008     -0.076254      0.159490
O	     12.96170     10.05880     -8.21875         0.114363     -0.105557      0.192140
O	      4.34568      6.15131     -0.10259         0.066913     -0.121792      0.120727
O	      4.32557     10.10195     -4.17397         0.065235     -0.145678      0.103768
O	     12.99652      8.13090     -2.01188         0.094804     -0.152830      0.076723
O	     12.95292     12.18502     -6.07814         0.106976     -0.196411      0.085131
O	      6.51412      4.16424     -4.16649         0.009325     -0.110043      0.116530
O	      6.54841     12.20020     -4.17545         0.043375     -0.111060      0.111116
O	     15.44025      5.98182     -5.96262        -0.145941     -0.106102      0.083825
O	     15.29067     13.95726     -6.00949        -0.071353     -0.152351      0.160645
O	      6.52544      6.16536     -2.15337        -0.005208     -0.117865      0.124683
O	      6.56485     10.18781     -6.18633         0.004337     -0.113150      0.118488
O	     15.57558      7.87625     -3.81536        -0.205799     -0.074471      0.084662
O	     15.24450     12.09599     -8.11592        -0.092817     -0.144482      0.171010
O	      4.36572      5.96482     -3.94531        -0.048600      0.131039     -0.133284
O	      4.44704     10.05594     -7.98844        -0.072785      0.150100     -0.100212
O	     13.21695      7.91335     -6.01791        -0.111791      0.172078     -0.084370
O	     13.14784     11.99161    -10.12155        -0.158895      0.121583     -0.067528
O	      4.42222      7.98134     -1.94587        -0.072195      0.134143     -0.109691
O	      4.47084     11.98804     -6.05065        -0.083874      0.116431     -0.160155
O	     13.21114     10.05010     -3.86770        -0.099452      0.082511     -0.169044
O	     13.20332     14.10319     -8.01565        -0.131066      0.045721     -0.115972
O	      6.53100      1.94875     -1.93692         0.008483      0.119166     -0.119966
O	      6.51899      5.97223     -5.97754         0.008527      0.135419     -0.127105
O	      6.56502      3.95746      0.07721         0.002172      0.126887     -0.132427
O	      6.54099      7.97207     -3.95613        -0.003742      0.136689     -0.122740
O	     15.13930     10.05041     -6.01102        -0.022825      0.160422     -0.141513
O	      0.06499      6.08798     -4.12189        -0.034219     -0.162147      0.133774
O	      8.65579      4.14029     -2.13552         0.004666     -0.121755      0.137285
O	      8.68904      8.16352     -6.16407         0.002302     -0.132768      0.132282
O	      8.65295      6.14858     -0.11792         0.010355     -0.134960      0.126463
O	      8.69652     10.17010     -4.15116         0.008726     -0.131491      0.135849
O	      2.04394      4.15124     -0.01262         0.127392     -0.123303      0.128605
O	      1.97179      8.22235     -4.11120         0.075942     -0.160259      0.142481
O	     10.78325      6.15072     -2.12716         0.091132     -0.133060      0.152987
O	     10.85762     10.18342     -6.16727         0.063655     -0.151069      0.154338
O	      2.01002      6.05481      1.92410         0.102729     -0.114539      0.102159
O	      2.00918     10.11144     -2.22523         0.046810     -0.129826      0.169082
O	     10.76247      8.15526     -0.11264         0.098228     -0.162351      0.150888
O	     10.79655      8.16439     -8.16008         0.096819     -0.135126      0.146247
O	     17.28770      8.11923     -6.07989         0.005325      0.148656     -0.188946
O	     16.95223     12.34083    -10.38495         0.118843      0.085238     -0.084120
O	      8.68247      5.95507     -3.94490        -0.006791      0.116934     -0.111449
O	      8.71099      9.97051     -7.97420         0.013388      0.119212     -0.116576
O	     17.24920     10.27670     -4.15137         0.020772      0.153586     -0.164916
O	     17.09211     14.23529     -8.23198         0.082230      0.113925     -0.079702
O	      8.68370      7.96284     -1.92744         0.004350      0.109381     -0.117706
O	      8.72417     11.97783     -5.96075         0.009116      0.109642     -0.116202
O	      2.25903      7.96861     -0.00995        -0.086389      0.185445     -0.141581
O	      2.23008     12.01697     -4.07253        -0.091632      0.139020     -0.139293
O	     10.88776      5.96875     -5.96247        -0.016011      0.145746     -0.169573
O	     10.87038     13.99039     -6.00049        -0.030061      0.127167     -0.133126
O	      2.24274      6.07433     -1.90909        -0.082929      0.157286     -0.197343
O	      2.19433     10.08636     -6.02542        -0.061745      0.147843     -0.139462
O	     10.87257      7.98064     -3.95188        -0.036252      0.151041     -0.141807
O	     10.89765     11.98674     -8.02190        -0.038652      0.117549     -0.147527
