# total energy = -589.57259829 eV
 
CRYSTAL
PRIMVEC
0.000039 4.064898 4.098470 
16.799413 4.135278 -4.168344 
0.050460 8.154265 -8.220571 
PRIMCOORD
123 1
Li	      8.33702      2.13359     -2.12689        -0.013515      0.019019      0.004747
Li	      8.39255      6.19985     -6.20955         0.005476      0.020505     -0.022584
Li	     16.77677      8.23082     -0.14798         0.007090      0.029127     -0.016885
Li	      0.26425      7.88908      0.23313        -0.008571     -0.018080     -0.022684
Li	      8.31602      4.14213     -0.07847        -0.011023      0.018135      0.004098
Li	      8.36988      8.20334     -4.18661         0.007253      0.021918     -0.023694
Li	     16.71984      6.25426     -2.23410         0.006641      0.021434     -0.027533
Li	      0.28375      5.91078     -1.84632         0.007601      0.049030     -0.018877
Li	      2.05349      2.11602     -0.13389         0.017211      0.001614      0.003317
Li	      2.41835      6.15846     -4.17718         0.032972      0.017769     -0.006975
Li	     10.36454      4.04431     -1.97180         0.005268      0.018946     -0.014410
Li	     10.43478      8.18048     -6.19603         0.002353     -0.029355      0.029736
Li	      2.03699      4.05233      2.05830         0.003001      0.021810     -0.032130
Li	      2.41850      8.21886     -2.13170         0.033478     -0.018482      0.012884
Li	     10.43569      6.07805      0.01311        -0.001759     -0.001599     -0.009182
Li	     10.29303     10.22706     -4.13933         0.002192     -0.017357      0.023560
Li	      4.16875      2.08271     -2.07599         0.027452      0.019833     -0.029928
Li	      4.33954     10.22240     -2.11559         0.013828     -0.023218      0.029191
Li	     12.69865      4.01770     -4.02929        -0.032377      0.036223     -0.010152
Li	     12.41929      8.28766     -8.08563         0.008243     -0.017024      0.024887
Li	      4.15639      4.07110     -0.02732         0.022995      0.024250     -0.025400
Li	      4.30827      8.22533     -4.17119         0.017161     -0.026315      0.025118
Li	     12.69090      6.00354     -2.05977        -0.032446      0.007607     -0.034691
Li	     12.41489     10.09283     -6.26678         0.018551     -0.017449      0.024993
Li	      6.33249      4.04748     -2.02057        -0.038950     -0.017415      0.021773
Li	      6.30289      8.17110     -6.16253         0.007487     -0.022268      0.023474
Li	     14.75899      6.04699     -4.03832        -0.012966      0.012377     -0.004680
Li	     14.51826     10.46111     -8.31413         0.006992     -0.029488      0.029714
Li	      6.32087      6.08734      0.04633        -0.029428     -0.020577      0.024851
Li	      6.30097     10.20509     -4.10344        -0.002111     -0.019786      0.028243
Li	     14.75399      8.11386     -2.04832        -0.014359     -0.002275     -0.004619
Li	     14.53397     12.42257     -6.19797         0.024814     -0.002400      0.010372
Ni	     16.77673     10.22559     -2.13469        -0.063173     -0.036679      0.029606
Ni	      0.08021      6.22336     -6.27243         0.038552     -0.196685      0.208413
Ni	      8.48100      8.10717     -0.03998        -0.071711     -0.038340      0.039041
Ni	      8.39475      8.16201     -8.20688        -0.077642     -0.060310      0.042091
Ni	     16.77383      8.22882     -4.21568        -0.056031      0.029787     -0.032281
Ni	      0.10006      8.26849     -4.21147         0.028451     -0.215244      0.198061
Ni	      8.47010      6.08036     -2.08426        -0.088253     -0.034928      0.031795
Ni	      8.40960     10.17609     -6.16754        -0.131815     -0.039386      0.078463
Ni	      2.17918      4.14165     -2.15462        -0.004578      0.020399     -0.013287
Ni	      2.14682      8.18526     -6.20118        -0.045748     -0.013281      0.043473
Ni	     10.53303      6.06172     -4.12389        -0.037865      0.037241     -0.038692
Ni	     10.55827     10.18914     -8.19275        -0.054678      0.013700     -0.004406
Ni	      2.19660      6.15329     -0.07348        -0.017241      0.008553     -0.017952
Ni	      2.16360     10.20949     -4.11906        -0.071875     -0.093170      0.051694
Ni	     10.51663      8.12373     -2.10075         0.020189      0.010873     -0.035144
Ni	     10.40373     12.24238     -6.16625         0.056848      0.008085     -0.010483
Ni	      4.26826      8.17872     -0.06390         0.056954      0.002484      0.002372
Ni	      4.17640     12.24569     -4.15285         0.069520     -0.000984     -0.007918
Ni	     12.55496      6.11609     -6.05986         0.045633     -0.002246     -0.094218
Ni	     12.65071     10.28106    -10.20808         0.042934     -0.144672     -0.036486
Ni	      4.26916      6.14242     -2.11532         0.051386      0.002574     -0.000607
Ni	      4.19483     10.22322     -6.19669         0.058009     -0.031599     -0.010592
Ni	     12.55791      8.06971     -4.08439        -0.001557      0.091965     -0.028548
Ni	     12.64661     12.21278     -8.28746         0.049017      0.030751      0.137856
Ni	      6.37874      6.16064     -4.19985         0.038009      0.041562     -0.029080
Ni	      6.25085     10.23240     -8.28121         0.057407      0.083477     -0.039844
Ni	     14.59623      8.05125     -6.05199        -0.054153      0.172746     -0.182517
Ni	     14.82513     12.25604    -10.32811         0.042777     -0.058610     -0.003140
Ni	      6.38446      8.19613     -2.14602         0.010510      0.048215     -0.036429
Ni	      6.26847     12.27283     -6.22481         0.061473      0.046981     -0.085794
Ni	     14.56693     10.22699     -4.15425         0.148921     -0.043462      0.047218
Ni	     14.80016     14.26080     -8.24783        -0.016514     -0.032203     -0.010958
O	      4.24214      4.16946     -2.26114         0.080594     -0.193502      0.150640
O	      4.21432      8.30539     -6.27986         0.067048     -0.138489      0.096507
O	     12.43060      6.09206     -4.08300         0.158732     -0.132213      0.145647
O	     12.70113     10.19284     -8.17850         0.053576     -0.102750      0.102242
O	      4.24769      6.27749     -0.12258         0.057521     -0.128789      0.221514
O	      4.22431     10.34473     -4.12177         0.096236     -0.158542      0.082974
O	     12.48651      8.30277     -2.19831         0.102606     -0.173182      0.125491
O	      6.49207      8.29439     -0.21504        -0.014827     -0.106734      0.116307
O	      6.28118     12.36871     -4.30958         0.006200     -0.157427      0.134381
O	     14.45615     10.19125     -2.16380         0.182961     -0.147045      0.102886
O	     14.96790     10.19430    -10.08922        -0.120411     -0.094556      0.042442
O	      6.45616      6.26129     -2.27297         0.010408     -0.121389      0.111092
O	      6.17660     10.30637     -6.34588         0.062973     -0.105175      0.149922
O	     14.45685      8.24119     -4.12307         0.175237     -0.110600      0.150901
O	     14.96881     12.24428     -8.01306        -0.092724     -0.130882      0.023484
O	      4.34758      6.02347     -4.11372        -0.084398      0.126140     -0.229885
O	      4.17584     10.06691     -8.25540        -0.098162      0.165311     -0.075301
O	     12.61274      8.06301     -6.04436        -0.093714      0.181453     -0.165890
O	     12.94229     12.20081    -10.22219        -0.164107      0.100372     -0.106128
O	      4.34231      8.12083     -1.97018        -0.063583      0.195073     -0.151127
O	      4.20357     12.12344     -6.12125        -0.105814      0.144356     -0.085325
O	     13.48191     11.28672     -5.18123        -0.266995      0.236279     -0.226210
O	     12.87325     14.13325     -8.05039        -0.123128      0.110545     -0.089718
O	      6.29481      1.97864     -1.95955         0.012187      0.102279     -0.163817
O	      6.40337     10.10850     -2.00558         0.018593      0.135676     -0.153510
O	     14.70841      7.99804     -0.01747        -0.002916      0.204452     -0.072938
O	      6.24113      3.99808      0.08860         0.015002      0.135310     -0.119573
O	      6.35662      8.07590     -4.06049        -0.002254      0.096312     -0.135335
O	     14.69256      5.97493     -2.04024        -0.011148      0.242884     -0.066105
O	     16.75834      6.33871     -4.26684        -0.012931     -0.167127      0.136841
O	      8.37206      4.20954     -2.09995         0.005483     -0.198177      0.074394
O	      8.35566      8.27558     -6.26720         0.016164     -0.152203      0.127044
O	     16.80131      8.25503     -2.32261        -0.000531     -0.136088      0.159776
O	      8.38612      6.23438     -0.06048        -0.022267     -0.216966      0.104020
O	      8.35254     10.31891     -4.24444         0.007563     -0.141723      0.157308
O	      2.03422      4.18003     -0.27359         0.061698     -0.104966      0.195631
O	      2.04485      8.24569     -4.12494         0.113704     -0.126927      0.041745
O	     10.44783      6.06472     -2.22497         0.086216     -0.083077      0.193048
O	     10.49037     10.23305     -6.26520         0.127957     -0.046210      0.117586
O	      2.00438      2.25959     -2.20149         0.039877     -0.176550      0.109666
O	      2.00777     10.18838     -2.16859         0.115199     -0.049586      0.150601
O	     10.43877      8.06465     -0.20929         0.090699     -0.086435      0.213161
O	     10.49174      8.25303     -8.25581         0.111502     -0.114374      0.055621
O	     16.47615      8.32321     -6.29861         0.175101      0.073696     -0.065343
O	     16.77455     12.29593    -10.30642         0.070853      0.131467     -0.144077
O	      8.59564      5.95409     -4.17016        -0.094018      0.185563     -0.088784
O	      8.39948     10.07160     -8.08761         0.040808      0.169052     -0.192166
O	     16.57907     10.22815     -4.22802         0.105705      0.106920     -0.097546
O	     16.75714     14.33162     -8.27316         0.097976      0.150329     -0.157434
O	      8.55731      7.98189     -2.14025        -0.106740      0.175766     -0.052239
O	      8.37768     12.09722     -6.07486         0.041575      0.142940     -0.128204
O	      2.09352      4.13205     -4.08656        -0.117427      0.073361     -0.144334
O	      2.12907     12.11206     -4.10244        -0.105431      0.200286     -0.082234
O	     10.65187      6.12889     -6.06349        -0.231073      0.060022     -0.159108
O	     10.64913     10.16050    -10.11414        -0.092625      0.073188     -0.131184
O	      2.12424      6.07463     -2.12423        -0.133200      0.130952     -0.065728
O	      2.26828     10.18481     -6.02547        -0.132960      0.077518     -0.200483
O	     10.65704      8.22306     -4.00242        -0.186665      0.077034     -0.194057
O	     10.64991     12.11574     -8.15166        -0.092213      0.133048     -0.057329
