# total energy = -90.29463889 eV
 
CRYSTAL
PRIMVEC
-0.000060 2.087305 2.087052 
8.369354 2.104840 -2.104752 
0.001453 4.207098 -4.206603 
PRIMCOORD
16 1
Li	      2.28351      2.09866     -0.00992        -0.076368     -0.005817      0.000359
Li	      4.18635      4.13253      0.03685         0.001625      0.054083     -0.048559
Li	      4.18412      6.35347     -2.17913         0.000253     -0.051658      0.050833
Li	      6.08928      6.30355     -4.21793         0.078701      0.002495     -0.001439
Mn	      0.00168      2.08781      2.08510        -0.001609     -0.000088     -0.000765
Mn	      0.00219      4.19136     -0.01821        -0.000040     -0.000823      0.000304
Ni	      6.17651      4.20158     -2.11712        -0.037131     -0.009303      0.009334
Ni	      2.19700      4.19839     -2.11134         0.038763      0.008644     -0.011190
O	      6.46148      6.23207     -2.06022         0.006210      0.115386     -0.113729
O	      8.33903      6.30627     -4.21546        -0.029886     -0.004703     -0.002115
O	      6.46151      4.25836     -0.08635         0.002354     -0.115281      0.117355
O	      0.03530      2.09403     -0.01276         0.026525      0.004059      0.003062
O	      1.91247      4.25513     -0.08097        -0.007518     -0.114603      0.113120
O	      4.18678      4.19937     -2.11442         0.000205      0.001235     -0.000114
O	      1.91265      6.22899     -2.05508        -0.003036      0.115496     -0.117288
O	      4.18573      2.09596     -0.01135         0.000952      0.000878      0.000832
