# total energy = -548.88353558 eV
 
CRYSTAL
PRIMVEC
0.000831 3.840980 3.834434 
16.219780 3.898297 -3.888286 
-0.001938 7.784954 -7.771323 
PRIMCOORD
123 1
Li	      7.71853      1.87650     -1.86961        -0.256476     -0.728888      0.168157
Li	      7.71240      9.26304     -1.92522         0.141814      0.470658      0.190557
Li	      0.18146      7.45804     -7.41009        -1.803291      0.122989     -0.505016
Li	      0.13904      3.85839     -3.65225        -1.237797     -1.229337     -0.026026
Li	      7.71788      3.70962     -0.04160        -0.287894     -0.428618      0.735512
Li	      7.71212      7.43056     -3.75493         0.171107      0.040751     -0.258092
Li	      0.17969      9.28810     -5.64052        -2.237402      0.658196     -0.207015
Li	      0.12900      5.52384     -1.98432        -1.660910     -0.046994      0.997040
Li	      1.87225      1.82573     -0.01089         0.355817     -0.100783     -0.205149
Li	      1.88723      5.59207     -3.73377         0.269168     -0.240466     -0.141083
Li	      9.65368      3.66527     -1.82364         0.737924     -0.801081      0.449300
Li	      9.63929      7.38135     -5.54430         0.267892     -0.289105     -0.404878
Li	      1.88211      3.68119      1.80013         0.016835     -0.219267      0.638129
Li	      2.13833      7.43283     -1.90862        -0.431160      0.210724      0.178732
Li	      9.64805      5.49955      0.00827         0.496914     -0.345719      0.768963
Li	      9.67325      9.21889     -3.71210         0.059024      0.217670      0.089821
Li	      3.86017      5.51578      1.81167         0.462376     -0.153301      0.528369
Li	      3.90169      5.60769     -5.57868        -0.109878     -0.291822     -0.308352
Li	     11.46864      7.35445     -0.01708         0.800606     -0.156328      0.899242
Li	     11.43314     11.03736     -3.70875         0.615690      0.548580      0.311608
Li	      3.93660      3.68830     -0.02321         0.227661     -0.535362      0.399109
Li	      3.89034      7.42829     -3.76163        -0.052341      0.046467      0.132983
Li	     11.46707      5.49688     -1.81405         1.176443     -0.779872      0.391624
Li	     11.43086      9.23283     -5.56521         0.743585     -0.494466      0.296655
Li	      5.83009      3.67835     -1.84288        -0.181697     -0.961454      0.490921
Li	      5.81285      7.40159     -5.55773         0.091790     -0.169114     -0.380425
Li	     13.59037      5.70332     -3.89654        -0.251787     -1.230207      0.362602
Li	     13.66750      9.38411     -7.51271         0.710669     -1.076672      0.873742
Li	      5.83412      5.51345     -0.00403        -0.027121     -0.344443      0.741451
Li	      5.81349      9.23374     -3.72376         0.020536      0.198762      0.316278
Li	     13.57389      7.57164     -2.06613         0.298954     -1.124342      1.399009
Li	     13.44012     11.15263     -5.62287         0.598807      0.664780      0.401192
Ni	     15.47540      5.51824     -5.48202         2.215415     -1.890126     -3.447317
Ni	      0.00051      5.65383     -5.54084        -2.511586     -1.645311     -2.446793
Ni	      7.77125      3.69797     -3.68730        -0.530567     -3.813343     -3.054649
Ni	      7.75578     11.08011     -3.74071        -0.583654      3.327030      3.525378
Ni	     15.43358      7.31484     -3.72109         2.981489      1.834285      0.237168
Ni	      0.01500      7.40373     -3.79803        -2.960475      1.481713      1.312739
Ni	      7.77081      5.53140     -1.85711        -0.391903      0.302816      1.261289
Ni	      7.75543      9.24607     -5.57191        -0.649512     -0.896655     -0.689852
Ni	      1.89645      3.72927     -1.87943        -1.298371     -3.503743     -1.385299
Ni	      1.93477      7.43070     -5.58485        -0.141941     -3.043770     -2.431607
Ni	      9.74191      5.53805     -3.70572         0.511831     -0.918735     -3.571156
Ni	      9.72063      9.27057     -7.41261        -0.882397     -2.792239     -1.606635
Ni	      1.97909      5.55486     -0.04049        -1.794786     -0.588309      1.854333
Ni	      1.92365      9.26706     -3.75515        -0.415960      0.542705      1.078213
Ni	      9.74466      7.37845     -1.87095        -0.520466      1.228674      2.942729
Ni	      9.71812     11.09867     -5.58773        -0.464608      3.790995      0.488834
Ni	      3.84678      3.72503     -3.70520         0.167594     -3.728091     -3.304304
Ni	      3.84013     11.10916     -3.77462         0.675675      3.926220      2.778049
Ni	     11.69715      9.20697     -1.88251        -0.180346      3.426006      2.918638
Ni	     11.66350      9.25219     -9.22212         0.173833     -1.659708     -2.768590
Ni	      3.84781      5.56132     -1.87848         0.327108      0.679248      1.025712
Ni	      3.84202      9.27704     -5.59816         0.654681     -0.327045     -1.409499
Ni	     11.67161      7.37370     -3.70815         0.243066     -0.236187     -0.821698
Ni	     11.67965     11.08927     -7.39726        -0.174669      1.491479     -0.664561
Ni	      5.79158      5.58249     -3.73586         0.292047     -0.354612     -1.484714
Ni	      5.79135      9.29867     -7.45776         0.139954      1.487582     -6.044867
Ni	     13.57109      7.36176     -5.54846         0.324770      0.805364     -4.173876
Ni	     13.55873     11.03733     -9.16359         1.568604      2.169227     -3.226238
Ni	      5.80233      7.41635     -1.90420         0.324372      3.752966      3.075159
Ni	      5.79241     11.13311     -5.62550         0.516110      5.720972     -4.722825
Ni	     13.53524      9.31635     -3.80515         0.453201      1.399764     -1.311957
Ni	     13.58312     12.85660     -7.33616         1.506820      3.490475      0.279025
O	      3.82156      3.81564     -1.96021         0.668427     -2.881846      1.751488
O	      3.85707      7.52510     -5.67719         0.671208     -2.937798     -0.019796
O	     11.73980      5.52968     -3.78680         0.596319     -2.889813      0.301224
O	     11.67274      9.33766     -7.38028         0.799663     -2.727784      1.273236
O	      3.85523      5.63158     -0.12000         1.364893     -0.112719      2.587161
O	      3.87441      9.36506     -3.84318         0.690760     -2.071290      2.666720
O	     11.72457      7.44358     -1.85816         0.648812     -2.997425      2.396732
O	     11.63203     11.07315     -5.64068         0.453733      0.404609      2.697535
O	      5.80942      3.83483     -3.81175         0.022279     -3.127520     -0.096041
O	      5.80500     11.22012     -3.87713        -0.063335     -0.588288      2.756666
O	     13.62408      9.28257     -2.00242        -0.117114      1.108914      2.869278
O	     13.60530      9.25128     -9.23186         0.386257     -2.968719     -0.828216
O	      5.81145      5.66286     -1.98919         0.055705     -2.100131      2.593615
O	      5.80757      9.38260     -5.71160        -0.024483     -2.474168      3.713278
O	     13.63982      7.49203     -3.78241        -1.026923     -1.566748      1.862091
O	     13.62053     11.09640     -7.37869         0.833290     -2.037322      2.268159
O	      3.85449      5.47335     -3.62976        -1.481853      2.335840     -2.625913
O	      3.84967      9.19093     -7.35353        -1.270314      0.308730     -3.357975
O	     11.77233      7.33204     -5.58020        -2.337329     -0.371510     -2.242747
O	     11.77793     11.12973     -9.18334        -2.881136      2.171177     -2.691755
O	      3.91475      7.30859     -1.78729        -0.655338      3.098620      0.204020
O	      3.88921     11.01931     -5.52907        -1.438884      3.071126     -2.676050
O	     11.70076      9.21977     -3.64305        -1.951308      1.488249     -1.589950
O	     11.78800     12.87848     -7.43556        -2.771044      3.195394     -0.720870
O	      5.80350      5.43777      1.89154        -0.047833     -0.992776      1.847902
O	      5.80886      5.48556     -5.47077         0.035484     -0.280157     -3.482256
O	      5.81094      3.60313      0.05632         0.064739     -1.222161      1.330689
O	      5.80634      7.31774     -3.64205         0.021736      2.818634     -2.124063
O	     15.38287      5.52449     -3.70921         1.815747     -2.708057      3.056962
O	      0.00567      5.58083     -3.72604        -0.220055     -1.704802      1.605281
O	      7.76254      3.79148     -1.94783         0.318416     -3.052124      2.513679
O	      7.74912      7.50268     -5.66251         0.072082     -3.207534     -0.171097
O	     15.38411      7.39494     -2.01829         1.831348     -0.187811      3.216991
O	      7.76125      5.62583     -0.11690         0.523835      0.045606      3.428523
O	      7.75280      9.33866     -3.82980        -0.017132     -2.347277      2.723296
O	      1.71704      3.83419     -0.05965        -0.811599     -3.516237      1.821591
O	      1.85571      7.53449     -3.75496         0.863036     -2.361947      1.708876
O	      9.69513      5.63485     -1.96075         1.165778     -2.391459      3.437261
O	      9.64686      9.33575     -5.67142         0.684279     -2.953275      2.168663
O	      1.81783      5.57669      1.66796        -0.640912     -0.076671      4.359131
O	      1.83855      9.27418     -2.02020         0.368372      0.103905      2.671201
O	      9.68140      3.79043     -3.78130         1.147137     -3.126539      0.670996
O	      9.66381     11.18625     -3.84618         0.757349     -0.190866      2.828593
O	     15.38857      7.44060     -5.49560         3.120207      1.405284     -2.696025
O	     15.31894     11.19911     -9.33094         2.994579      1.815180     -2.419218
O	      7.77721      5.45016     -3.60796         0.276429      2.070644     -2.640148
O	      7.75573      9.16525     -7.32638         0.058882      0.257277     -3.185562
O	     14.57427     10.25687     -4.68565         3.955766      1.861269     -1.594822
O	     15.35951     12.97431     -7.42696         3.857966      1.839445      0.006008
O	      7.77576      7.28404     -1.77841         0.210340      3.067555      0.072594
O	      7.75871     11.00180     -5.49158         0.151416      2.638355     -2.312577
O	      1.92218      7.27188     -0.04459        -1.495172      3.688472      0.364537
O	      1.96338     10.99786     -3.73223        -2.414269      3.451599     -0.397808
O	      9.76068      9.12334     -1.78573        -1.072076      2.661302     -0.181715
O	      9.74970      9.19255     -9.15663        -1.239291      0.932484     -3.107325
O	      1.92025      5.56080     -1.75110        -1.692478      1.561290     -3.384445
O	      1.97058      9.23044     -5.48398        -2.422997      2.731024     -3.382037
O	      9.77157      7.28226     -3.62430        -1.334460      1.880785     -2.746230
O	      9.73429     11.02494     -7.32935        -1.360121      3.268427     -2.635126
