# total energy = -557.32156990 eV
 
CRYSTAL
PRIMVEC
0.000836 3.861090 3.854510 
16.304700 3.918707 -3.908644 
-0.001948 7.825713 -7.812011 
PRIMCOORD
123 1
Li	      7.79956      1.89620     -1.88924        -0.223883     -0.630212      0.160613
Li	      7.79336      9.36029     -1.94543         0.125338      0.424024      0.137972
Li	      0.18336      7.53634     -7.48789        -1.618118      0.085152     -0.417219
Li	      0.14050      3.89891     -3.69060        -1.212836     -1.042415     -0.036859
Li	      7.79890      3.74857     -0.04204        -0.258710     -0.374682      0.633667
Li	      7.79309      7.50857     -3.79436         0.147655      0.048170     -0.241683
Li	      0.18158      9.38561     -5.69974        -1.978825      0.552553     -0.168933
Li	      0.13036      5.58184     -2.00516        -1.575655     -0.038283      0.836018
Li	      1.89191      1.84491     -0.01102         0.344848     -0.146811     -0.099162
Li	      1.90704      5.65078     -3.77297         0.216459     -0.133712     -0.197738
Li	      9.75503      3.70375     -1.84278         0.633022     -0.712970      0.392217
Li	      9.74048      7.45884     -5.60250         0.209977     -0.218899     -0.350958
Li	      1.90187      3.71983      1.81903         0.048659     -0.302406      0.662320
Li	      2.16079      7.51087     -1.92866        -0.355182      0.317610      0.044212
Li	      9.74934      5.55729      0.00836         0.431191     -0.321949      0.681529
Li	      9.77481      9.31568     -3.75108         0.040319      0.204360      0.066456
Li	      3.90070      5.57369      1.83069         0.477074     -0.171667      0.498458
Li	      3.94264      5.66655     -5.63725        -0.101771     -0.219527     -0.286634
Li	     11.58905      7.43166     -0.01726         0.699013     -0.145373      0.788809
Li	     11.55318     11.15324     -3.74769         0.504750      0.469049      0.248708
Li	      3.97793      3.72702     -0.02345         0.263093     -0.497958      0.368698
Li	      3.93119      7.50627     -3.80112        -0.051037      0.072868      0.082581
Li	     11.58745      5.55459     -1.83309         1.012257     -0.683072      0.348311
Li	     11.55086      9.32976     -5.62363         0.619439     -0.428177      0.248127
Li	      5.89130      3.71696     -1.86222        -0.120290     -0.858654      0.458264
Li	      5.87386      7.47930     -5.61608         0.079774     -0.135586     -0.326053
Li	     13.73305      5.76320     -3.93746        -0.231772     -1.064712      0.338240
Li	     13.81099      9.48262     -7.59158         0.631058     -0.893952      0.711583
Li	      5.89537      5.57134     -0.00407         0.004543     -0.330741      0.662908
Li	      5.87453      9.33068     -3.76286         0.021986      0.197339      0.248807
Li	     13.71639      7.65113     -2.08782         0.259235     -0.971686      1.211620
Li	     13.58123     11.26972     -5.68189         0.533150      0.588483      0.321668
Ni	     15.63788      5.57617     -5.53957         1.913170     -1.619989     -3.000977
Ni	      0.00053      5.71319     -5.59902        -2.217438     -1.640092     -2.085228
Ni	      7.85283      3.73678     -3.72600        -0.427787     -3.254481     -2.571980
Ni	      7.83719     11.19643     -3.77998        -0.508134      2.823812      3.003156
Ni	     15.59559      7.39163     -3.76015         2.547274      1.558118      0.176793
Ni	      0.01516      7.48146     -3.83791        -2.537801      1.064959      1.327796
Ni	      7.85238      5.58947     -1.87661        -0.313127      0.245487      1.089612
Ni	      7.83685      9.34315     -5.63041        -0.564212     -0.771564     -0.571991
Ni	      1.91637      3.76842     -1.89917        -1.042246     -2.900037     -1.033082
Ni	      1.95508      7.50871     -5.64348        -0.041945     -2.595631     -2.064285
Ni	      9.84419      5.59620     -3.74463         0.438246     -0.804021     -3.010827
Ni	      9.82268      9.36789     -7.49042        -0.778086     -2.348561     -1.401649
Ni	      1.99987      5.61318     -0.04091        -1.520049     -0.527679      1.598671
Ni	      1.94384      9.36435     -3.79458        -0.262519      0.484803      0.908476
Ni	      9.84697      7.45592     -1.89060        -0.444681      1.083413      2.454010
Ni	      9.82014     11.21519     -5.64640        -0.437534      3.198579      0.435561
Ni	      3.88717      3.76414     -3.74409         0.284172     -3.134431     -2.862684
Ni	      3.88045     11.22579     -3.81426         0.574640      3.347234      2.362253
Ni	     11.81996      9.30363     -1.90227        -0.160654      2.935345      2.492614
Ni	     11.78596      9.34932     -9.31895         0.170439     -1.374993     -2.360547
Ni	      3.88821      5.61970     -1.89820         0.413983      0.599222      0.844583
Ni	      3.88236      9.37445     -5.65694         0.545947     -0.289831     -1.202275
Ni	     11.79414      7.45111     -3.74708         0.206359     -0.219242     -0.738217
Ni	     11.80226     11.20569     -7.47492        -0.109056      1.280502     -0.577684
Ni	      5.85239      5.64110     -3.77508         0.299992     -0.283959     -1.297836
Ni	      5.85215      9.39629     -7.53606         0.132289      1.446055     -5.346358
Ni	     13.71357      7.43905     -5.60672         0.257459      0.745242     -3.595778
Ni	     13.70108     11.15321     -9.25980         1.335790      1.826033     -2.744312
Ni	      5.86324      7.49421     -1.92419         0.308206      3.212558      2.588570
Ni	      5.85324     11.24999     -5.68456         0.464538      5.000409     -4.126488
Ni	     13.67734      9.41416     -3.84510         0.373360      1.187946     -1.107210
Ni	     13.72573     12.99158     -7.41318         1.306666      2.992693      0.242162
O	      3.86167      3.85570     -1.98079         0.377439     -2.438327      1.593776
O	      3.89755      7.60411     -5.73679         0.594629     -2.509323      0.023644
O	     11.86306      5.58773     -3.82656         0.513261     -2.518934      0.274259
O	     11.79528      9.43569     -7.45776         0.690210     -2.296533      1.090423
O	      3.89571      5.69070     -0.12125         1.093045     -0.109494      2.195726
O	      3.91509      9.46338     -3.88353         0.569149     -1.765047      2.272887
O	     11.84765      7.52173     -1.87767         0.548609     -2.525115      2.086477
O	     11.75415     11.18941     -5.69990         0.396706      0.329011      2.276452
O	      5.87040      3.87509     -3.85177        -0.027664     -2.659872     -0.046765
O	      5.86595     11.33791     -3.91783        -0.068137     -0.730827      2.202745
O	     13.76711      9.38002     -2.02345        -0.114035      0.937601      2.480922
O	     13.74814      9.34840     -9.32879         0.378401     -2.537973     -0.667490
O	      5.87247      5.72231     -2.01007        -0.021236     -1.813906      2.205471
O	      5.86854      9.48110     -5.77156        -0.074007     -1.965717      3.279945
O	     13.78302      7.57069     -3.82211        -0.897628     -1.355711      1.598511
O	     13.76353     11.21290     -7.45615         0.716385     -1.786456      1.959976
O	      3.89495      5.53081     -3.66787        -1.299555      1.947481     -2.170937
O	      3.89009      9.28742     -7.43073        -1.115414      0.285133     -2.913961
O	     11.89592      7.40901     -5.63878        -1.981072     -0.326333     -1.960330
O	     11.90158     11.24658     -9.27976        -2.503907      1.870564     -2.281285
O	      3.95585      7.38531     -1.80606        -0.600755      2.566323      0.142855
O	      3.93004     11.13500     -5.58712        -1.240522      2.660598     -2.327879
O	     11.82361      9.31656     -3.68130        -1.665084      1.297865     -1.297917
O	     11.91176     13.01369     -7.51362        -2.401618      2.726851     -0.668348
O	      5.86443      5.49486      1.91140        -0.078076     -1.026527      1.650043
O	      5.86984      5.54314     -5.52821         0.014089     -0.237433     -2.930255
O	      5.87195      3.64096      0.05690         0.017536     -1.009969      1.294248
O	      5.86729      7.39457     -3.68029         0.005532      2.366152     -1.797230
O	     15.54436      5.58249     -3.74816         1.662712     -2.328152      2.628211
O	      0.00573      5.63942     -3.76516        -0.141967     -1.471082      1.430346
O	      7.84404      3.83129     -1.96828         0.277865     -2.580286      2.130380
O	      7.83048      7.58145     -5.72196         0.064378     -2.753027     -0.116097
O	     15.54563      7.47257     -2.03948         1.644331     -0.151609      2.742853
O	      7.84273      5.68489     -0.11813         0.452008      0.015254      2.904008
O	      7.83420      9.43671     -3.87002        -0.002194     -1.997457      2.346618
O	      1.73506      3.87445     -0.06027        -0.673075     -2.899008      1.206790
O	      1.87519      7.61359     -3.79438         0.694621     -2.007101      1.598385
O	      9.79692      5.69400     -1.98133         0.999034     -2.012034      2.911525
O	      9.74813      9.43376     -5.73097         0.677003     -2.504539      1.817703
O	      1.83692      5.63525      1.68547        -0.615469      0.143001      3.688267
O	      1.85786      9.37155     -2.04141         0.334193     -0.038104      2.286399
O	      9.78304      3.83022     -3.82100         0.966712     -2.655133      0.594271
O	      9.76528     11.30369     -3.88655         0.664793     -0.210797      2.372996
O	     15.55014      7.51871     -5.55329         2.790675      1.206372     -2.324085
O	     15.47976     11.31667     -9.42890         2.548470      1.829675     -2.330775
O	      7.85887      5.50738     -3.64584         0.212913      1.768429     -2.215886
O	      7.83716      9.26148     -7.40330         0.060772      0.224609     -2.743146
O	     14.72727     10.36455     -4.73484         3.558997      1.621317     -1.375797
O	     15.52076     13.11052     -7.50494         3.380127      1.756850     -0.075305
O	      7.85739      7.36052     -1.79709         0.160719      2.604294      0.049605
O	      7.84017     11.11730     -5.54924         0.104292      2.246537     -1.978820
O	      1.94237      7.34823     -0.04506        -1.334679      3.092633      0.545812
O	      1.98399     11.11332     -3.77141        -2.128269      2.965912     -0.464021
O	      9.86316      9.21911     -1.80448        -0.896456      2.232647     -0.166628
O	      9.85206      9.28906     -9.25277        -1.089276      0.833159     -2.656519
O	      1.94041      5.61918     -1.76948        -1.506977      0.928677     -2.782336
O	      1.99127      9.32734     -5.54155        -2.191586      2.475249     -2.901893
O	      9.87415      7.35871     -3.66235        -1.121186      1.567551     -2.308245
O	      9.83650     11.14069     -7.40629        -1.161779      2.818015     -2.231969
