# total energy = -572.23965303 eV
 
CRYSTAL
PRIMVEC
0.000844 3.901310 3.894661 
16.474541 3.959527 -3.949359 
-0.001968 7.907230 -7.893386 
PRIMCOORD
123 1
Li	      7.96290      1.93591     -1.92880        -0.176573     -0.443936      0.124747
Li	      7.95657      9.55631     -1.98617         0.082808      0.309639      0.073123
Li	      0.18720      7.69415     -7.64469        -1.275360      0.089375     -0.320575
Li	      0.14345      3.98056     -3.76788        -0.963511     -0.795307     -0.036376
Li	      7.96222      3.82707     -0.04292        -0.209447     -0.257816      0.439918
Li	      7.95629      7.66581     -3.87381         0.092297      0.046340     -0.186237
Li	      0.18539      9.58216     -5.81910        -1.506271      0.413642     -0.161791
Li	      0.13308      5.69873     -2.04715        -1.174415     -0.048081      0.625082
Li	      1.93152      1.88354     -0.01125         0.265881     -0.048342     -0.104945
Li	      1.94698      5.76912     -3.85198         0.156783     -0.126043     -0.079600
Li	      9.95932      3.78131     -1.88137         0.437518     -0.525119      0.287746
Li	      9.94447      7.61504     -5.71983         0.130145     -0.132664     -0.241489
Li	      1.94170      3.79773      1.85712         0.020078     -0.147320      0.403254
Li	      2.20603      7.66816     -1.96905        -0.241473      0.152233      0.094558
Li	      9.95352      5.67366      0.00853         0.301831     -0.252927      0.504362
Li	      9.97951      9.51077     -3.82963         0.013793      0.153698      0.042473
Li	      3.98240      5.69041      1.86902         0.316478     -0.127461      0.364161
Li	      4.02522      5.78522     -5.75531        -0.057967     -0.159811     -0.183510
Li	     11.83175      7.58729     -0.01763         0.491673     -0.125950      0.567093
Li	     11.79512     11.38681     -3.82618         0.337711      0.321927      0.161413
Li	      4.06123      3.80507     -0.02394         0.156111     -0.338732      0.246329
Li	      4.01351      7.66346     -3.88072        -0.016125      0.045546      0.074489
Li	     11.83012      5.67091     -1.87148         0.706780     -0.491551      0.251742
Li	     11.79276      9.52514     -5.74140         0.410472     -0.304359      0.184378
Li	      6.01468      3.79481     -1.90122        -0.107475     -0.622926      0.344194
Li	      5.99688      7.63593     -5.73370         0.070947     -0.101335     -0.209346
Li	     14.02063      5.88388     -4.01991        -0.142377     -0.749952      0.253519
Li	     14.10023      9.68121     -7.75057         0.522833     -0.603102      0.456319
Li	      6.01883      5.68801     -0.00415        -0.014953     -0.259076      0.482702
Li	      5.99754      9.52608     -3.84166         0.020749      0.147503      0.158592
Li	     14.00364      7.81136     -2.13155         0.203551     -0.686130      0.849317
Li	     13.86565     11.50573     -5.80089         0.423896      0.422669      0.214870
Ni	     15.96537      5.69294     -5.65558         1.617814     -1.097898     -2.213192
Ni	      0.00053      5.83283     -5.71627        -1.792989     -1.550201     -1.304045
Ni	      8.01729      3.81504     -3.80404        -0.318119     -2.245676     -1.737647
Ni	      8.00132     11.43091     -3.85914        -0.380348      1.917390      2.069844
Ni	     15.92220      7.54642     -3.83889         2.090911      1.136026      0.061665
Ni	      0.01547      7.63813     -3.91828        -1.935553      0.378897      1.296823
Ni	      8.01683      5.70653     -1.91591        -0.247623      0.162287      0.763427
Ni	      8.00096      9.53880     -5.74832        -0.409791     -0.543553     -0.362364
Ni	      1.95650      3.84734     -1.93894        -0.842170     -2.107829     -0.652271
Ni	      1.99603      7.66595     -5.76166         0.133840     -1.759452     -1.368937
Ni	     10.05034      5.71339     -3.82305         0.284485     -0.586638     -2.035948
Ni	     10.02838      9.56407     -7.64729        -0.574942     -1.570107     -1.004103
Ni	      2.04174      5.73073     -0.04176        -1.167107     -0.495941      1.183565
Ni	      1.98456      9.56046     -3.87405        -0.028905      0.336895      0.651371
Ni	     10.05319      7.61206     -1.93019        -0.325836      0.793887      1.614311
Ni	     10.02580     11.45006     -5.76464        -0.361306      2.156941      0.335287
Ni	      3.96858      3.84296     -3.82250         0.169852     -2.171874     -1.958734
Ni	      3.96171     11.46089     -3.89413         0.463685      2.335691      1.573694
Ni	     12.06748      9.49845     -1.94211        -0.090217      2.040621      1.720164
Ni	     12.03279      9.54511     -9.51411         0.158435     -0.887734     -1.629734
Ni	      3.96963      5.73739     -1.93795         0.214046      0.394727      0.606487
Ni	      3.96366      9.57076     -5.77540         0.459489     -0.186937     -0.860637
Ni	     12.04113      7.60715     -3.82555         0.181790     -0.162017     -0.544328
Ni	     12.04942     11.44035     -7.63146        -0.022781      0.917306     -0.416890
Ni	      5.97494      5.75924     -3.85414         0.201662     -0.194408     -0.908411
Ni	      5.97471      9.59306     -7.69388         0.067430      1.285361     -4.089778
Ni	     14.00075      7.59483     -5.72412         0.262296      0.615260     -2.546032
Ni	     13.98800     11.38678     -9.45372         0.914910      1.279665     -1.915659
Ni	      5.98603      7.65115     -1.96448         0.197116      2.201974      1.759204
Ni	      5.97581     11.48560     -5.80361         0.352262      3.742393     -3.081425
Ni	     13.96377      9.61130     -3.92562         0.268726      0.820435     -0.767528
Ni	     14.01317     13.26365     -7.56843         0.918348      2.127503      0.144416
O	      3.94255      3.93645     -2.02228         0.375362     -1.616157      1.079749
O	      3.97918      7.76335     -5.85693         0.375775     -1.754652      0.031015
O	     12.11149      5.70475     -3.90670         0.365982     -1.778086      0.244615
O	     12.04230      9.63330     -7.61395         0.483930     -1.542130      0.746470
O	      3.97728      5.80987     -0.12379         0.801586     -0.086433      1.501101
O	      3.99708      9.66156     -3.96486         0.335402     -1.254510      1.554058
O	     12.09576      7.67924     -1.91699         0.367579     -1.745582      1.465498
O	     12.00030     11.42373     -5.81927         0.281402      0.210191      1.528072
O	      5.99334      3.95624     -3.93243         0.012840     -1.817895      0.001558
O	      5.98879     11.57535     -3.99988        -0.059688     -0.819442      1.417305
O	     14.05542      9.57645     -2.06582        -0.166757      0.608979      1.760999
O	     14.03606      9.54418     -9.52415         0.330570     -1.767022     -0.407762
O	      5.99545      5.84215     -2.05217         0.014462     -1.240273      1.498878
O	      5.99144      9.67966     -5.89242        -0.069103     -1.262054      2.408943
O	     14.07167      7.72923     -3.90216        -0.725144     -0.960655      1.133891
O	     14.05176     11.44772     -7.61230         0.541923     -1.304664      1.381452
O	      3.97652      5.64664     -3.74468        -0.874380      1.345434     -1.483520
O	      3.97155      9.48192     -7.58634        -0.789302      0.220624     -2.000572
O	     12.14505      7.56417     -5.75687        -1.407975     -0.214758     -1.383863
O	     12.15083     11.48211     -9.47410        -1.815031      1.324951     -1.574164
O	      4.03870      7.53998     -1.84388        -0.405076      1.756322      0.057532
O	      4.01235     11.36819     -5.70413        -0.860623      1.835032     -1.549078
O	     12.07121      9.51167     -3.75839        -1.201382      0.895923     -0.862156
O	     12.16122     13.28622     -7.67097        -1.732957      1.885958     -0.539592
O	      5.98726      5.60994      1.95142        -0.049972     -1.019101      1.315081
O	      5.99277      5.65923     -5.64398         0.011869     -0.136096     -2.001109
O	      5.99492      3.71721      0.05810         0.024884     -0.695010      1.242197
O	      5.99016      7.54943     -3.75736         0.008036      1.610575     -1.253052
O	     15.86989      5.69940     -3.82664         1.241867     -1.721129      1.921420
O	      0.00585      5.75752     -3.84400        -0.127346     -0.916141      0.941579
O	      8.00830      3.91153     -2.00950         0.211485     -1.767290      1.497364
O	      7.99446      7.74021     -5.84179         0.058132     -1.903128     -0.041689
O	     15.87119      7.62907     -2.08219         1.192272     -0.154670      1.966006
O	      8.00698      5.80395     -0.12061         0.330297     -0.039219      1.988072
O	      7.99825      9.63433     -3.95105         0.015856     -1.368829      1.631810
O	      1.77140      3.95558     -0.06154        -0.629060     -2.057707      1.102724
O	      1.91446      7.77304     -3.87384         0.429410     -1.307932      1.031829
O	     10.00209      5.81325     -2.02283         0.715736     -1.360871      2.008021
O	      9.95228      9.63132     -5.85099         0.561894     -1.723670      1.209123
O	      1.87539      5.75325      1.72078        -0.584302     -0.111317      2.638531
O	      1.89676      9.56780     -2.08416         0.282562     -0.002238      1.520831
O	      9.98792      3.91043     -3.90102         0.683547     -1.833733      0.456620
O	      9.96978     11.54041     -3.96795         0.478175     -0.206910      1.594052
O	     15.87579      7.67617     -5.66959         1.993473      0.857321     -1.658106
O	     15.80392     11.55367     -9.62636         1.895896      1.692770     -2.023803
O	      8.02345      5.62272     -3.72219         0.146316      1.233081     -1.486396
O	      8.00129      9.45543     -7.55834         0.070913      0.172904     -1.922420
O	     15.03568     10.58160     -4.83400         2.690484      1.207692     -0.990569
O	     15.84580     13.38508     -7.66211         2.527609      1.452812     -0.198190
O	      8.02194      7.51466     -1.83473         0.119562      1.792803     -0.008559
O	      8.00436     11.35012     -5.66545         0.051991      1.537168     -1.379480
O	      1.98304      7.50212     -0.04600        -0.967160      2.187543      0.219104
O	      2.02554     11.34605     -3.85039        -1.594656      2.044716     -0.356512
O	     10.06970      9.41218     -1.84227        -0.605767      1.508066     -0.133927
O	     10.05837      9.48358     -9.44654        -0.771907      0.644390     -1.841721
O	      1.98103      5.73685     -1.80654        -1.065494      0.883957     -2.001675
O	      2.03297      9.52268     -5.65761        -1.709702      1.696141     -1.969507
O	     10.08094      7.51281     -3.73905        -0.770231      1.049248     -1.568667
O	     10.04249     11.37399     -7.56140        -0.781866      1.997078     -1.522516
