# total energy = -577.72259733 eV
 
CRYSTAL
PRIMVEC
0.000849 3.921419 3.914736 
16.559461 3.979937 -3.969716 
-0.001979 7.947989 -7.934073 
PRIMCOORD
123 1
Li	      8.04519      1.95592     -1.94874        -0.140381     -0.362030      0.110888
Li	      8.03881      9.65509     -2.00671         0.058531      0.258444      0.047870
Li	      0.18913      7.77369     -7.72371        -1.063180      0.078027     -0.267272
Li	      0.14493      4.02170     -3.80683        -0.840848     -0.678064     -0.043927
Li	      8.04453      3.86663     -0.04336        -0.169575     -0.212770      0.356689
Li	      8.03853      7.74505     -3.91385         0.070836      0.039716     -0.158869
Li	      0.18729      9.68120     -5.87925        -1.241812      0.337391     -0.142132
Li	      0.13446      5.75763     -2.06831        -0.986026     -0.042111      0.522493
Li	      1.95150      1.90301     -0.01136         0.225064     -0.039813     -0.077109
Li	      1.96709      5.82874     -3.89179         0.131103     -0.104967     -0.061250
Li	     10.06225      3.82039     -1.90081         0.347403     -0.437431      0.239153
Li	     10.04726      7.69375     -5.77895         0.090630     -0.090059     -0.196842
Li	      1.96178      3.83699      1.87631         0.011440     -0.122864      0.328663
Li	      2.22884      7.74742     -1.98941        -0.196586      0.122293      0.071851
Li	     10.05639      5.73231      0.00862         0.245786     -0.221801      0.424507
Li	     10.08265      9.60907     -3.86921         0.004429      0.135314      0.023961
Li	      4.02354      5.74922      1.88835         0.245301     -0.114693      0.311044
Li	      4.06682      5.84502     -5.81479        -0.048991     -0.123637     -0.145892
Li	     11.95405      7.66571     -0.01781         0.394816     -0.112237      0.469014
Li	     11.91704     11.50450     -3.86572         0.262058      0.263174      0.120168
Li	      4.10320      3.84440     -0.02419         0.113140     -0.279708      0.201755
Li	      4.05501      7.74267     -3.92084        -0.014942      0.040592      0.055572
Li	     11.95239      5.72952     -1.89082         0.565436     -0.404295      0.208768
Li	     11.91465      9.62359     -5.80074         0.316710     -0.254431      0.146894
Li	      6.07684      3.83403     -1.92088        -0.087701     -0.501977      0.284517
Li	      6.05885      7.71485     -5.79296         0.055305     -0.090111     -0.154262
Li	     14.16554      5.94470     -4.06146        -0.103204     -0.612396      0.218234
Li	     14.24597      9.78128     -7.83067         0.461828     -0.464107      0.352999
Li	      6.08104      5.74680     -0.00420        -0.008104     -0.222005      0.395334
Li	      6.05953      9.62454     -3.88136         0.014416      0.106140      0.135146
Li	     14.14837      7.89209     -2.15358         0.180306     -0.558839      0.681916
Li	     14.00895     11.62464     -5.86084         0.364575      0.345565      0.160257
Ni	     16.13037      5.75179     -5.71403         1.452201     -0.869203     -1.834456
Ni	      0.00054      5.89313     -5.77536        -1.580750     -1.415103     -0.982499
Ni	      8.10015      3.85447     -3.84335        -0.267656     -1.794770     -1.369699
Ni	      8.08401     11.54906     -3.89903        -0.295703      1.536505      1.658387
Ni	     16.08677      7.62442     -3.87858         1.854243      0.948005      0.014558
Ni	      0.01564      7.71709     -3.95878        -1.675216      0.182021      1.206760
Ni	      8.09969      5.76551     -1.93571        -0.211484      0.125785      0.613448
Ni	      8.08367      9.63740     -5.80773        -0.314872     -0.438351     -0.280681
Ni	      1.97673      3.88711     -1.95898        -0.722241     -1.705407     -0.470891
Ni	      2.01666      7.74519     -5.82122         0.159485     -1.390444     -1.083462
Ni	     10.15422      5.77244     -3.86256         0.216580     -0.473027     -1.606678
Ni	     10.13204      9.66292     -7.72633        -0.475193     -1.229479     -0.820757
Ni	      2.06285      5.78996     -0.04219        -0.982127     -0.443740      0.977823
Ni	      2.00506      9.65928     -3.91408         0.027342      0.283063      0.511607
Ni	     10.15709      7.69074     -1.95014        -0.269304      0.651586      1.257929
Ni	     10.12943     11.56840     -5.82422        -0.316753      1.711617      0.276804
Ni	      4.00960      3.88268     -3.86201         0.140573     -1.732130     -1.563001
Ni	      4.00267     11.57934     -3.93439         0.366997      1.878786      1.247519
Ni	     12.19222      9.59664     -1.96219        -0.066572      1.641414      1.374810
Ni	     12.15715      9.64377     -9.61244         0.135615     -0.690567     -1.296002
Ni	      4.01066      5.79669     -1.95798         0.164714      0.302549      0.481941
Ni	      4.00464      9.66969     -5.83510         0.362097     -0.153676     -0.699390
Ni	     12.16559      7.68577     -3.86509         0.164589     -0.127248     -0.450682
Ni	     12.17397     11.55861     -7.71034        -0.002937      0.736229     -0.338910
Ni	      6.03671      5.81877     -3.89398         0.163738     -0.145546     -0.740106
Ni	      6.03645      9.69221     -7.77340         0.034237      1.143775     -3.435971
Ni	     14.14546      7.67333     -5.78329         0.242612      0.552972     -2.079049
Ni	     14.13259     11.50447     -9.55143         0.730327      1.037788     -1.558336
Ni	      6.04790      7.73023     -1.98479         0.157369      1.764770      1.392839
Ni	      6.03758     11.60430     -5.86359         0.286780      3.101807     -2.551552
Ni	     14.10809      9.71065     -3.96619         0.209426      0.655434     -0.616473
Ni	     14.15801     13.40073     -7.64665         0.728405      1.747951      0.091785
O	      3.98329      3.97714     -2.04317         0.320812     -1.268530      0.889203
O	      4.02030      7.84359     -5.91747         0.311897     -1.414932      0.044259
O	     12.23668      5.76372     -3.94708         0.301671     -1.439471      0.228198
O	     12.16677      9.73286     -7.69264         0.419635     -1.220795      0.598845
O	      4.01840      5.86993     -0.12507         0.659924     -0.097975      1.202735
O	      4.03840      9.76142     -4.00584         0.268078     -1.016975      1.238310
O	     12.22079      7.75862     -1.93681         0.294173     -1.417924      1.190114
O	     12.12434     11.54181     -5.87942         0.252352      0.163761      1.219732
O	      6.05528      3.99713     -3.97307         0.013996     -1.460064      0.036743
O	      6.05069     11.69499     -4.04122        -0.039979     -0.704953      1.151859
O	     14.20069      9.67543     -2.08717        -0.164098      0.458675      1.437048
O	     14.18113      9.64283     -9.62259         0.343668     -1.425511     -0.290143
O	      6.05742      5.90253     -2.07338         0.013451     -1.013112      1.203792
O	      6.05337      9.77971     -5.95333        -0.046554     -1.008068      1.858028
O	     14.21711      7.80912     -3.94249        -0.643417     -0.787416      0.926156
O	     14.19700     11.56604     -7.69098         0.508601     -1.084753      1.127377
O	      4.01762      5.70500     -3.78338        -0.699894      1.085320     -1.172468
O	      4.01261      9.57992     -7.66475        -0.637911      0.199988     -1.624068
O	     12.27058      7.64235     -5.81637        -1.146818     -0.153486     -1.121434
O	     12.27641     11.60078     -9.57201        -1.499259      1.076912     -1.276413
O	      4.08043      7.61790     -1.86293        -0.335426      1.380391      0.019422
O	      4.05383     11.48568     -5.76308        -0.690038      1.494299     -1.246404
O	     12.19598      9.60998     -3.79724        -0.986574      0.722543     -0.694815
O	     12.28691     13.42354     -7.75026        -1.430171      1.521388     -0.471116
O	      6.04914      5.66792      1.97159        -0.043880     -0.907841      1.198045
O	      6.05472      5.71773     -5.70232         0.005495     -0.086654     -1.595485
O	      6.05689      3.75563      0.05869         0.019315     -0.598677      1.113465
O	      6.05207      7.62745     -3.79619         0.007941      1.288606     -1.021196
O	     16.03391      5.75830     -3.86620         1.034818     -1.435986      1.585887
O	      0.00592      5.81703     -3.88374        -0.124575     -0.690519      0.741112
O	      8.09108      3.95195     -2.03026         0.173843     -1.413701      1.216299
O	      8.07710      7.82021     -5.90217         0.042826     -1.534178     -0.004315
O	     16.03522      7.70792     -2.10371         0.982058     -0.143308      1.628196
O	      8.08974      5.86393     -0.12185         0.265700     -0.067094      1.591446
O	      8.08092      9.73391     -3.99189         0.005585     -1.110301      1.317624
O	      1.78971      3.99647     -0.06217        -0.590068     -1.655626      0.927082
O	      1.93425      7.85337     -3.91388         0.312580     -1.034790      0.859905
O	     10.10546      5.87333     -2.04373         0.589503     -1.084671      1.612792
O	     10.05515      9.73087     -5.91146         0.500969     -1.388593      0.958688
O	      1.89478      5.81272      1.73856        -0.566301     -0.143285      2.149021
O	      1.91637      9.66669     -2.10571         0.240774     -0.041399      1.217194
O	     10.09115      3.95085     -3.94134         0.557197     -1.480387      0.389681
O	     10.07281     11.65968     -4.00895         0.393086     -0.214888      1.267136
O	     16.03987      7.75551     -5.72819         1.645045      0.703543     -1.376436
O	     15.96728     11.67308     -9.72585         1.606005      1.523803     -1.795017
O	      8.10637      5.68083     -3.76066         0.122404      0.998336     -1.174038
O	      8.08399      9.55317     -7.63646         0.045606      0.153925     -1.554643
O	     15.19110     10.69098     -4.88396         2.284214      1.023623     -0.814505
O	     16.00958     13.52343     -7.74131         2.132311      1.244270     -0.245211
O	      8.10486      7.59233     -1.85369         0.103003      1.431596     -0.033335
O	      8.08708     11.46743     -5.72400         0.024312      1.232320     -1.114551
O	      2.00353      7.57966     -0.04648        -0.800694      1.759382      0.147580
O	      2.04647     11.46332     -3.89018        -1.340104      1.651570     -0.344599
O	     10.17379      9.50946     -1.86131        -0.486628      1.199464     -0.116558
O	     10.16234      9.58160     -9.54417        -0.630125      0.546789     -1.496500
O	      2.00151      5.79615     -1.82521        -0.876459      0.729060     -1.618197
O	      2.05398      9.62110     -5.71608        -1.465077      1.408184     -1.574260
O	     10.18513      7.59046     -3.77769        -0.610439      0.837209     -1.244323
O	     10.14629     11.49155     -7.63955        -0.622646      1.641230     -1.220696
