# total energy = -582.21250341 eV
 
CRYSTAL
PRIMVEC
0.000853 3.941529 3.934812 
16.644382 4.000347 -3.990074 
-0.001989 7.988748 -7.974761 
PRIMCOORD
123 1
Li	      8.12793      1.97603     -1.96878        -0.087842     -0.285903      0.095504
Li	      8.12146      9.75436     -2.02734         0.047841      0.210932      0.023080
Li	      0.19109      7.85362     -7.80313        -0.851886      0.065206     -0.214004
Li	      0.14642      4.06305     -3.84597        -0.700693     -0.556810     -0.053084
Li	      8.12725      3.90638     -0.04381        -0.106486     -0.168759      0.279393
Li	      8.12118      7.82469     -3.95409         0.054666      0.044969     -0.140055
Li	      0.18923      9.78075     -5.93970        -0.968634      0.260778     -0.117092
Li	      0.13584      5.81683     -2.08958        -0.786543     -0.029128      0.420830
Li	      1.97156      1.92258     -0.01148         0.178575     -0.037342     -0.049293
Li	      1.98733      5.88869     -3.93182         0.103722     -0.078253     -0.047153
Li	     10.16572      3.85967     -1.92036         0.269685     -0.353689      0.198673
Li	     10.15056      7.77286     -5.83837         0.063653     -0.053440     -0.157876
Li	      1.98194      3.87644      1.89561         0.002507     -0.104382      0.261311
Li	      2.25176      7.82707     -2.00986        -0.156976      0.094356      0.052643
Li	     10.15980      5.79125      0.00871         0.197703     -0.192857      0.348368
Li	     10.18633      9.70788     -3.90900        -0.002246      0.115181      0.010028
Li	      4.06492      5.80834      1.90776         0.167880     -0.102272      0.255975
Li	      4.10864      5.90512     -5.87458        -0.043414     -0.086472     -0.115350
Li	     12.07696      7.74454     -0.01799         0.313991     -0.101980      0.377648
Li	     12.03958     11.62280     -3.90547         0.184710      0.210957      0.078361
Li	      4.14540      3.88393     -0.02444         0.061867     -0.222989      0.160089
Li	      4.09671      7.82229     -3.96115        -0.016896      0.037462      0.038920
Li	     12.07530      5.78844     -1.91026         0.438464     -0.318173      0.168699
Li	     12.03716      9.72255     -5.86039         0.225744     -0.193596      0.110043
Li	      6.13933      3.87345     -1.94063        -0.070407     -0.384162      0.215479
Li	      6.12116      7.79419     -5.85253         0.045355     -0.083142     -0.101921
Li	     14.31121      6.00583     -4.10322        -0.078486     -0.480713      0.180309
Li	     14.39245      9.88186     -7.91119         0.391942     -0.347384      0.259765
Li	      6.14356      5.80589     -0.00424        -0.009518     -0.166009      0.303261
Li	      6.12185      9.72351     -3.92128         0.012206      0.063581      0.120866
Li	     14.29386      7.97325     -2.17572         0.151436     -0.432093      0.532355
Li	     14.15301     11.74418     -5.92111         0.298898      0.277038      0.115586
Ni	     16.29625      5.81093     -5.77279         1.270685     -0.655017     -1.469537
Ni	      0.00054      5.95372     -5.83474        -1.367000     -1.235560     -0.701786
Ni	      8.18345      3.89411     -3.88287        -0.217047     -1.379993     -1.032542
Ni	      8.16714     11.66781     -3.93913        -0.188831      1.182102      1.274538
Ni	     16.25219      7.70283     -3.91847         1.609546      0.774349     -0.023142
Ni	      0.01580      7.79644     -3.99949        -1.422265      0.054944      1.086893
Ni	      8.18298      5.82480     -1.95562        -0.173072      0.086584      0.477473
Ni	      8.16679      9.73650     -5.86745        -0.204169     -0.344172     -0.204625
Ni	      1.99705      3.92707     -1.97912        -0.610622     -1.323975     -0.322469
Ni	      2.03739      7.82484     -5.88108         0.154029     -1.058524     -0.822392
Ni	     10.25864      5.83180     -3.90229         0.160714     -0.369626     -1.223055
Ni	     10.23623      9.76229     -7.80578        -0.375432     -0.924944     -0.647134
Ni	      2.08406      5.84950     -0.04263        -0.810353     -0.383790      0.776964
Ni	      2.02568      9.75859     -3.95433         0.048809      0.228893      0.383123
Ni	     10.26154      7.76982     -1.97019        -0.209941      0.515962      0.940322
Ni	     10.23358     11.68735     -5.88411        -0.269600      1.302221      0.221430
Ni	      4.05083      3.92261     -3.90172         0.104016     -1.322531     -1.195011
Ni	      4.04383     11.69841     -3.97484         0.257922      1.445811      0.954077
Ni	     12.31759      9.69531     -1.98236        -0.050726      1.269758      1.050832
Ni	     12.28215      9.74293     -9.71128         0.109614     -0.524324     -0.985266
Ni	      4.05189      5.85629     -1.97812         0.110935      0.224808      0.364453
Ni	      4.04581      9.76911     -5.89509         0.247490     -0.121085     -0.543682
Ni	     12.29069      7.76481     -3.90483         0.150928     -0.094708     -0.359739
Ni	     12.29914     11.67745     -7.78962        -0.000145      0.569294     -0.261246
Ni	      6.09879      5.87860     -3.93402         0.129916     -0.100274     -0.581125
Ni	      6.09852      9.79188     -7.85333         0.018444      0.978935     -2.802936
Ni	     14.29092      7.75224     -5.84276         0.214611      0.495694     -1.641228
Ni	     14.27791     11.62277     -9.64965         0.559811      0.824711     -1.232629
Ni	      6.11009      7.80972     -2.00520         0.128301      1.362089      1.055006
Ni	      6.09966     11.72363     -5.92389         0.224797      2.468998     -2.023985
Ni	     14.25316      9.81050     -4.00698         0.145732      0.495954     -0.475469
Ni	     14.30360     13.53853     -7.72528         0.551584      1.400601      0.037409
O	      4.02426      4.01804     -2.06419         0.276101     -0.964006      0.705569
O	      4.06165      7.92425     -5.97832         0.264773     -1.103285      0.059990
O	     12.36250      5.82298     -3.98766         0.241467     -1.115445      0.224853
O	     12.29187      9.83294     -7.77174         0.363590     -0.941416      0.463449
O	      4.05971      5.93028     -0.12636         0.539299     -0.111359      0.931228
O	      4.07993      9.86180     -4.04704         0.230123     -0.804851      0.955558
O	     12.34644      7.83840     -1.95673         0.226987     -1.129499      0.923845
O	     12.24901     11.66049     -5.93988         0.235072      0.123727      0.943813
O	      6.11756      4.03824     -4.01393         0.014639     -1.137469      0.057330
O	      6.11290     11.81524     -4.08278        -0.029926     -0.470327      0.936646
O	     14.34672      9.77492     -2.10864        -0.152703      0.315010      1.129868
O	     14.32695      9.74198     -9.72153         0.352382     -1.105662     -0.188379
O	      6.11970      5.96322     -2.09470         0.011422     -0.799136      0.943447
O	      6.11561      9.88026     -6.01454        -0.031959     -0.785778      1.280037
O	     14.36330      7.88942     -3.98303        -0.562841     -0.622447      0.736204
O	     14.34298     11.68497     -7.77006         0.489255     -0.884233      0.890059
O	      4.05894      5.76366     -3.82229        -0.535376      0.848779     -0.885719
O	      4.05387      9.67843     -7.74357        -0.479013      0.188487     -1.285130
O	     12.39675      7.72093     -5.87618        -0.905851     -0.094647     -0.871870
O	     12.40264     11.72007     -9.67044        -1.199558      0.833822     -1.005487
O	      4.12240      7.69624     -1.88209        -0.261792      1.048548     -0.012718
O	      4.09550     11.60379     -5.82234        -0.528413      1.170891     -0.980813
O	     12.32139      9.70880     -3.83629        -0.783526      0.557784     -0.551581
O	     12.41326     13.56157     -7.82995        -1.145073      1.188454     -0.389923
O	      6.11134      5.72620      1.99187        -0.036382     -0.753317      1.125405
O	      6.11697      5.77651     -5.76095         0.012622     -0.042482     -1.237584
O	      6.11918      3.79425      0.05929         0.007174     -0.601916      0.940216
O	      6.11431      7.70588     -3.83523         0.009661      0.996052     -0.797636
O	     16.19879      5.81752     -3.90596         0.815277     -1.172451      1.268294
O	      0.00598      5.87684     -3.92367        -0.125318     -0.503339      0.555633
O	      8.17428      3.99259     -2.05114         0.129049     -1.096996      0.950648
O	      8.16016      7.90063     -5.96286         0.020719     -1.199019      0.030128
O	     16.20011      7.78718     -2.12534         0.764246     -0.125805      1.334368
O	      8.17292      5.92423     -0.12310         0.199835     -0.092841      1.232739
O	      8.16402      9.83400     -4.03294        -0.015709     -0.878142      1.032418
O	      1.80811      4.03756     -0.06281        -0.536795     -1.288646      0.765215
O	      1.95413      7.93413     -3.95413         0.221043     -0.806457      0.708729
O	     10.20938      5.93373     -2.06475         0.468138     -0.845128      1.253293
O	     10.15854      9.83093     -5.97225         0.432243     -1.085260      0.738694
O	      1.91427      5.87249      1.75643        -0.534216     -0.170484      1.697530
O	      1.93608      9.76609     -2.12736         0.195773     -0.079156      0.944575
O	     10.19492      3.99147     -3.98187         0.444687     -1.151939      0.318678
O	     10.17640     11.77958     -4.05018         0.328074     -0.213733      0.974321
O	     16.20481      7.83526     -5.78710         1.312402      0.560421     -1.119220
O	     16.13147     11.79311     -9.82586         1.331695      1.298666     -1.518310
O	      8.18973      5.73924     -3.79933         0.089815      0.774118     -0.899490
O	      8.16711      9.65139     -7.71498        -0.015809      0.143393     -1.217246
O	     15.34731     10.80091     -4.93418         1.893187      0.847107     -0.656370
O	     16.17420     13.66248     -7.82090         1.751311      1.023693     -0.265508
O	      8.18820      7.67040     -1.87275         0.078147      1.106141     -0.045564
O	      8.17024     11.58535     -5.78287        -0.019768      0.954459     -0.874604
O	      2.02414      7.65760     -0.04696        -0.633923      1.377050      0.081466
O	      2.06752     11.58120     -3.93019        -1.100055      1.281770     -0.329141
O	     10.27839      9.60724     -1.88045        -0.378429      0.922001     -0.105901
O	     10.26684      9.68013     -9.64231        -0.503188      0.464712     -1.178978
O	      2.02209      5.85575     -1.84398        -0.690227      0.594685     -1.272116
O	      2.07511      9.72003     -5.77486        -1.212951      1.151281     -1.213605
O	     10.28986      7.66851     -3.81654        -0.475488      0.646408     -0.954955
O	     10.25062     11.60971     -7.71810        -0.485417      1.315112     -0.961278
