# total energy = -585.74840463 eV
 
CRYSTAL
PRIMVEC
0.000858 3.961639 3.954888 
16.729302 4.020757 -4.010431 
-0.001999 8.029507 -8.015449 
PRIMCOORD
123 1
Li	      8.21107      1.99624     -1.98892        -0.037799     -0.212763      0.076686
Li	      8.20456      9.85415     -2.04808         0.036462      0.164374      0.001953
Li	      0.19304      7.93396     -7.88295        -0.629351      0.045948     -0.163077
Li	      0.14791      4.10462     -3.88531        -0.547366     -0.437578     -0.056212
Li	      8.21039      3.94634     -0.04425        -0.052348     -0.124016      0.201322
Li	      8.20427      7.90473     -3.99454         0.040656      0.043693     -0.111885
Li	      0.19116      9.88081     -6.00046        -0.706397      0.188495     -0.084994
Li	      0.13724      5.87634     -2.11095        -0.583192     -0.016331      0.318497
Li	      1.99173      1.94224     -0.01159         0.127050     -0.035333     -0.025251
Li	      2.00765      5.94893     -3.97204         0.073934     -0.051221     -0.033020
Li	     10.26972      3.89916     -1.94000         0.194302     -0.268560      0.155447
Li	     10.25441      7.85238     -5.89810         0.038008     -0.025411     -0.120226
Li	      2.00221      3.91610      1.91500        -0.004256     -0.084274      0.197568
Li	      2.27480      7.90715     -2.03042        -0.124062      0.066652      0.034270
Li	     10.26373      5.85049      0.00880         0.145303     -0.154263      0.268842
Li	     10.29055      9.80719     -3.94899        -0.004633      0.093721     -0.001008
Li	      4.10651      5.86776      1.92728         0.094082     -0.086711      0.200260
Li	      4.15068      5.96554     -5.93468        -0.047999     -0.059109     -0.083515
Li	     12.20051      7.82377     -0.01818         0.229025     -0.089370      0.286754
Li	     12.16274     11.74169     -3.94542         0.120580      0.160873      0.047294
Li	      4.18781      3.92367     -0.02468         0.011940     -0.165960      0.119629
Li	      4.13862      7.90232     -4.00168        -0.027659      0.027620      0.023939
Li	     12.19882      5.84766     -1.92981         0.319802     -0.233047      0.127807
Li	     12.16030      9.82202     -5.92034         0.145228     -0.143244      0.080059
Li	      6.20214      3.91308     -1.96048        -0.056167     -0.272663      0.150560
Li	      6.18379      7.87392     -5.91240         0.029944     -0.077595     -0.053786
Li	     14.45761      6.06726     -4.14519        -0.043526     -0.354362      0.145851
Li	     14.53969      9.98294     -7.99212         0.321390     -0.242623      0.172108
Li	      6.20641      5.86529     -0.00429        -0.011829     -0.111534      0.218298
Li	      6.18448      9.82298     -3.96139         0.007198      0.020879      0.108458
Li	     14.44008      8.05481     -2.19798         0.115979     -0.323324      0.389095
Li	     14.29779     11.86433     -5.98168         0.230197      0.208949      0.068411
Ni	     16.46295      5.87038     -5.83185         1.066392     -0.466410     -1.111955
Ni	      0.00055      6.01463     -5.89443        -1.120732     -1.009289     -0.461938
Ni	      8.26715      3.93394     -3.92260        -0.165935     -0.993820     -0.728512
Ni	      8.25070     11.78717     -3.97942        -0.090076      0.845204      0.916388
Ni	     16.41845      7.78162     -3.95855         1.342717      0.596179     -0.046167
Ni	      0.01596      7.87619     -4.04040        -1.143877     -0.012519      0.914344
Ni	      8.26669      5.88439     -1.97562        -0.136568      0.058185      0.350179
Ni	      8.25033      9.83610     -5.92748        -0.110185     -0.248346     -0.137813
Ni	      2.01748      3.96725     -1.99937        -0.499927     -0.966460     -0.191536
Ni	      2.05824      7.90488     -5.94124         0.120306     -0.758165     -0.582107
Ni	     10.36357      5.89145     -3.94220         0.103474     -0.268686     -0.873715
Ni	     10.34094      9.86216     -7.88563        -0.273058     -0.652533     -0.484591
Ni	      2.10539      5.90934     -0.04307        -0.638553     -0.315968      0.577882
Ni	      2.04640      9.85842     -3.99478         0.036661      0.172546      0.272472
Ni	     10.36651      7.84931     -1.99035        -0.160035      0.387761      0.656674
Ni	     10.33828     11.80692     -5.94431        -0.213677      0.933659      0.165076
Ni	      4.09227      3.96274     -3.94164         0.067341     -0.947594     -0.857275
Ni	      4.08518     11.81809     -4.01550         0.145170      1.033736      0.683037
Ni	     12.44359      9.79449     -2.00264        -0.030134      0.926512      0.750185
Ni	     12.40781      9.84261     -9.81063         0.082364     -0.364442     -0.705322
Ni	      4.09334      5.91620     -1.99835         0.064584      0.151569      0.256355
Ni	      4.08720      9.86905     -5.95540         0.141313     -0.090460     -0.386796
Ni	     12.41642      7.84424     -3.94478         0.134862     -0.057726     -0.268816
Ni	     12.42497     11.79692     -7.86931         0.005387      0.417597     -0.188883
Ni	      6.16117      5.93874     -3.97426         0.095260     -0.060012     -0.436614
Ni	      6.16091      9.89205     -7.93367         0.019271      0.789461     -2.179546
Ni	     14.43712      7.83154     -5.90253         0.186716      0.439050     -1.237617
Ni	     14.42398     11.74167     -9.74836         0.419689      0.638121     -0.941367
Ni	      6.17260      7.88962     -2.02572         0.090619      0.987513      0.747650
Ni	      6.16206     11.84356     -5.98448         0.160718      1.867332     -1.510652
Ni	     14.39897      9.91086     -4.04797         0.088255      0.348388     -0.341478
Ni	     14.44991     13.67703     -7.80432         0.406340      1.072194     -0.016089
O	      4.06543      4.05914     -2.08531         0.243055     -0.702800      0.542973
O	      4.10319      8.00531     -6.03947         0.238437     -0.813489      0.077392
O	     12.48897      5.88255     -4.02846         0.189119     -0.817305      0.215710
O	     12.41763      9.93354     -7.85125         0.296988     -0.703394      0.334053
O	      4.10126      5.99095     -0.12765         0.431218     -0.128857      0.685672
O	      4.12167      9.96269     -4.08843         0.215409     -0.606322      0.700705
O	     12.47275      7.91859     -1.97674         0.171614     -0.862197      0.680077
O	     12.37432     11.77978     -6.00064         0.208962      0.085866      0.710739
O	      6.18013      4.07955     -4.05499         0.024511     -0.845499      0.073187
O	      6.17544     11.93612     -4.12454        -0.027853     -0.227094      0.731295
O	     14.49349      9.87492     -2.13020        -0.140137      0.187258      0.840051
O	     14.47351      9.84164     -9.82099         0.321834     -0.821678     -0.091382
O	      6.18231      6.02424     -2.11613         0.013343     -0.606772      0.707700
O	      6.17818      9.98135     -6.07607        -0.026430     -0.599714      0.776468
O	     14.51024      7.97013     -4.02377        -0.487305     -0.464630      0.553762
O	     14.48972     11.80451     -7.84955         0.442917     -0.685013      0.671180
O	      4.10046      5.82263     -3.86139        -0.377840      0.640153     -0.638472
O	      4.09534      9.77744     -7.82279        -0.313753      0.183482     -0.963654
O	     12.52358      7.79992     -5.93629        -0.693645     -0.027007     -0.635866
O	     12.52953     11.83997     -9.76937        -0.923314      0.614571     -0.769497
O	      4.16457      7.77498     -1.90135        -0.198811      0.750761     -0.035817
O	      4.13740     11.72250     -5.88191        -0.379660      0.873397     -0.736445
O	     12.44744      9.80812     -3.87553        -0.601569      0.402330     -0.430035
O	     12.54024     13.70031     -7.91006        -0.883006      0.888614     -0.307889
O	      6.17386      5.78477      2.01225        -0.028171     -0.577714      1.017570
O	      6.17954      5.83561     -5.81988         0.008055     -0.000637     -0.906398
O	      6.18177      3.83306      0.05991         0.003832     -0.613510      0.729383
O	      6.17685      7.78472     -3.87446         0.009228      0.737649     -0.601194
O	     16.36450      5.87703     -3.94590         0.599142     -0.913942      0.965938
O	      0.00604      5.93696     -3.96381        -0.128328     -0.364578      0.400067
O	      8.25790      4.03343     -2.07212         0.091948     -0.812878      0.716723
O	      8.24363      7.98146     -6.02386         0.003384     -0.887760      0.054931
O	     16.36584      7.86684     -2.14709         0.560716     -0.111257      1.052990
O	      8.25653      5.98483     -0.12436         0.133638     -0.110901      0.917120
O	      8.24753      9.93460     -4.07420        -0.031909     -0.666948      0.766880
O	      1.82660      4.07887     -0.06345        -0.452352     -0.952612      0.616088
O	      1.97413      8.01529     -3.99458         0.165207     -0.600022      0.576274
O	     10.31382      5.99443     -2.08587         0.361660     -0.631300      0.923606
O	     10.26246      9.93150     -6.03334         0.345950     -0.805046      0.546453
O	      1.93384      5.93256      1.77440        -0.474766     -0.197097      1.276211
O	      1.95588      9.86600     -2.14912         0.162787     -0.127440      0.702913
O	     10.29921      4.03230     -4.02260         0.338575     -0.858609      0.256741
O	     10.28049     11.90008     -4.09161         0.264273     -0.187636      0.719286
O	     16.37058      7.91541     -5.84629         0.989476      0.432512     -0.874297
O	     16.29649     11.91376     -9.92638         1.049979      1.033112     -1.204516
O	      8.27352      5.79796     -3.83821         0.062110      0.580314     -0.656628
O	      8.25066      9.75013     -7.79391        -0.061775      0.135846     -0.903673
O	     15.50431     10.91140     -4.98466         1.495732      0.675714     -0.507634
O	     16.33966     13.80225     -7.90091         1.354661      0.798879     -0.267717
O	      8.27197      7.74887     -1.89191         0.053472      0.810839     -0.061970
O	      8.25383     11.70387     -5.84203        -0.046114      0.702102     -0.655298
O	      2.04484      7.73593     -0.04744        -0.477467      1.022343      0.012062
O	      2.08867     11.69968     -3.97040        -0.855222      0.955104     -0.312422
O	     10.38355      9.70553     -1.89969        -0.289268      0.682892     -0.094294
O	     10.37186      9.77916     -9.74095        -0.377148      0.380617     -0.890314
O	      2.04278      5.91566     -1.86285        -0.509045      0.472232     -0.951135
O	      2.09633      9.81946     -5.83393        -0.942114      0.905150     -0.890990
O	     10.39514      7.74697     -3.85559        -0.350785      0.490093     -0.700984
O	     10.35549     11.72849     -7.79707        -0.372626      0.985343     -0.725267
