# total energy = -588.36151371 eV
 
CRYSTAL
PRIMVEC
0.000862 3.981749 3.974963 
16.814222 4.041167 -4.030789 
-0.002009 8.070266 -8.056136 
PRIMCOORD
123 1
Li	      8.29465      2.01657     -2.00916        -0.019378     -0.134432      0.047855
Li	      8.28807      9.95445     -2.06892         0.022332      0.110771     -0.003297
Li	      0.19500      8.01472     -7.96319        -0.408851      0.032355     -0.113081
Li	      0.14941      4.14639     -3.92486        -0.366994     -0.303640     -0.053582
Li	      8.29395      3.98651     -0.04471        -0.024886     -0.072381      0.123799
Li	      8.28776      7.98519     -4.03520         0.025194      0.028510     -0.078426
Li	      0.19311      9.98137     -6.06154        -0.447654      0.121244     -0.058157
Li	      0.13864      5.93615     -2.13244        -0.372211     -0.003052      0.213738
Li	      2.01201      1.96201     -0.01171         0.076635     -0.034582     -0.006335
Li	      2.02809      6.00948     -4.01246         0.049525     -0.030081     -0.020210
Li	     10.37424      3.93885     -1.95976         0.117057     -0.173925      0.103966
Li	     10.35878      7.93230     -5.95813         0.018749     -0.010299     -0.077852
Li	      2.02260      3.95596      1.93449        -0.010340     -0.066458      0.140107
Li	      2.29795      7.98763     -2.05109        -0.091658      0.046976      0.019218
Li	     10.36819      5.91004      0.00889         0.091288     -0.105737      0.180017
Li	     10.39528      9.90701     -3.98918        -0.014183      0.061709     -0.000659
Li	      4.14830      5.92749      1.94689         0.042005     -0.058440      0.136786
Li	      4.19291      6.02625     -5.99508        -0.046059     -0.035781     -0.048536
Li	     12.32469      7.90340     -0.01837         0.144801     -0.068135      0.197615
Li	     12.28654     11.86121     -3.98558         0.068236      0.111662      0.024502
Li	      4.23042      3.96360     -0.02493        -0.015762     -0.106010      0.077827
Li	      4.18074      7.98274     -4.04240        -0.032256      0.015764      0.016421
Li	     12.32299      5.90718     -1.94945         0.203917     -0.148125      0.080667
Li	     12.28407      9.92198     -5.98060         0.088748     -0.105716      0.059833
Li	      6.26527      3.95291     -1.98044        -0.038395     -0.174716      0.093105
Li	      6.24671      7.95406     -5.97257         0.012305     -0.061892     -0.013890
Li	     14.60477      6.12902     -4.18739        -0.016319     -0.235077      0.104357
Li	     14.68767     10.08455     -8.07347         0.245720     -0.153721      0.106468
Li	      6.26958      5.92499     -0.00433        -0.014568     -0.072222      0.141274
Li	      6.24741      9.92296     -4.00171        -0.000715     -0.005034      0.086737
Li	     14.58706      8.13680     -2.22035         0.092023     -0.218540      0.254857
Li	     14.44332     11.98509     -6.04256         0.172811      0.137168      0.037299
Ni	     16.63052      5.93012     -5.89120         0.824448     -0.299296     -0.768504
Ni	      0.00056      6.07585     -5.95443        -0.803135     -0.749833     -0.261997
Ni	      8.35130      3.97398     -3.96252        -0.128427     -0.644397     -0.449800
Ni	      8.33468     11.90714     -4.01993        -0.049478      0.525018      0.605049
Ni	     16.58556      7.86083     -3.99884         1.027160      0.420523     -0.051693
Ni	      0.01612      7.95636     -4.08153        -0.808031     -0.047363      0.704484
Ni	      8.35084      5.94428     -1.99574        -0.106059      0.022644      0.234378
Ni	      8.33431      9.93622     -5.98781        -0.073091     -0.176573     -0.064722
Ni	      2.03801      4.00763     -2.01972        -0.367847     -0.621494     -0.097558
Ni	      2.07919      7.98534     -6.00171         0.070062     -0.492695     -0.358328
Ni	     10.46906      5.95142     -3.98233         0.049075     -0.169770     -0.561606
Ni	     10.44619      9.96254     -7.96589        -0.194461     -0.411723     -0.317419
Ni	      2.12682      5.96949     -0.04351        -0.459910     -0.231005      0.375469
Ni	      2.06724      9.95877     -4.03545         0.011680      0.105874      0.169218
Ni	     10.47203      7.92920     -2.01061        -0.121107      0.260360      0.401528
Ni	     10.44350     11.92709     -6.00481        -0.164909      0.593112      0.110945
Ni	      4.13392      4.00307     -3.98176         0.029038     -0.613416     -0.541912
Ni	      4.12676     11.93837     -4.05637         0.059664      0.654738      0.444590
Ni	     12.57025      9.89418     -2.02302        -0.024023      0.608579      0.472228
Ni	     12.53409      9.94279     -9.91048         0.065668     -0.219280     -0.455711
Ni	      4.13500      5.97642     -2.01869         0.024373      0.084501      0.162330
Ni	      4.12879      9.96950     -6.01601         0.058710     -0.066075     -0.243502
Ni	     12.54280      7.92409     -3.98493         0.108775     -0.028352     -0.183786
Ni	     12.55143     11.91698     -7.94941         0.008069      0.285879     -0.132833
Ni	      6.22388      5.99918     -4.01471         0.062919     -0.030246     -0.292133
Ni	      6.22362      9.99273     -8.01442         0.014020      0.573412     -1.527234
Ni	     14.58406      7.91126     -5.96260         0.164183      0.375768     -0.866966
Ni	     14.57078     11.86117     -9.84758         0.308484      0.478641     -0.677421
Ni	      6.23544      7.96992     -2.04633         0.066724      0.637150      0.465208
Ni	      6.22477     11.96410     -6.04540         0.105124      1.276806     -1.019387
Ni	     14.54554     10.01174     -4.08917         0.031896      0.207050     -0.213977
Ni	     14.59699     13.81623     -7.88374         0.289186      0.774351     -0.089580
O	      4.10680      4.10045     -2.10652         0.204252     -0.473466      0.394020
O	      4.14496      8.08679     -6.10094         0.207586     -0.544297      0.086072
O	     12.61608      5.94242     -4.06945         0.152852     -0.531023      0.207825
O	     12.54401     10.03464     -7.93116         0.225403     -0.505822      0.216753
O	      4.14299      6.05193     -0.12895         0.322651     -0.126725      0.461082
O	      4.16362     10.06409     -4.13005         0.184716     -0.424141      0.471539
O	     12.59969      7.99918     -1.99686         0.126054     -0.620183      0.447291
O	     12.50026     11.89968     -6.06172         0.167483      0.053246      0.514987
O	      6.24304      4.12107     -4.09626         0.029581     -0.576341      0.085585
O	      6.23829     12.05761     -4.16652        -0.010443     -0.110292      0.525719
O	     14.64099      9.97543     -2.15188        -0.129473      0.064080      0.576933
O	     14.62082      9.94181     -9.92095         0.234233     -0.573345      0.000410
O	      6.24523      6.08555     -2.13767         0.017728     -0.423324      0.492138
O	      6.24106     10.08293     -6.13791        -0.008772     -0.432589      0.452765
O	     14.65793      8.05125     -4.06473        -0.409587     -0.323504      0.393753
O	     14.63719     11.92465     -7.92945         0.335161     -0.498133      0.479364
O	      4.14220      5.88189     -3.90069        -0.244436      0.449389     -0.429831
O	      4.13702      9.87695     -7.90240        -0.182390      0.169287     -0.658476
O	     12.65104      7.87932     -5.99672        -0.499305      0.043440     -0.423598
O	     12.65705     11.96048     -9.86880        -0.664833      0.403081     -0.555957
O	      4.20696      7.85411     -1.92070        -0.148945      0.499342     -0.065680
O	      4.17951     11.84182     -5.94178        -0.247594      0.600271     -0.512121
O	     12.57413      9.90795     -3.91498        -0.439875      0.262880     -0.333687
O	     12.66788     13.83975     -7.99056        -0.632179      0.610811     -0.216073
O	      6.23669      5.84366      2.03273        -0.015669     -0.373989      0.770534
O	      6.24245      5.89501     -5.87912         0.016655      0.048957     -0.618020
O	      6.24469      3.87208      0.06052         0.005800     -0.490814      0.479333
O	      6.23973      7.86395     -3.91390         0.016430      0.513271     -0.425310
O	     16.53107      5.93684     -3.98607         0.375245     -0.657017      0.684745
O	      0.00610      5.99739     -4.00416        -0.130683     -0.273762      0.276971
O	      8.34195      4.07448     -2.09321         0.058361     -0.554049      0.503397
O	      8.32754      8.06269     -6.08517        -0.000532     -0.598589      0.084596
O	     16.53242      7.94691     -2.16894         0.352420     -0.098762      0.782276
O	      8.34056      6.04575     -0.12563         0.089625     -0.124999      0.626971
O	      8.33148     10.03571     -4.11567        -0.027368     -0.471220      0.526228
O	      1.84520      4.12038     -0.06410        -0.336941     -0.643693      0.461826
O	      1.99422      8.09688     -4.03524         0.122687     -0.419624      0.454781
O	     10.41880      6.05544     -2.10711         0.266275     -0.452505      0.636585
O	     10.36692     10.03259     -6.09475         0.267143     -0.560107      0.388643
O	      1.95353      5.99295      1.79247        -0.370846     -0.209137      0.889370
O	      1.97579      9.96642     -2.17099         0.124330     -0.167470      0.485556
O	     10.40403      4.07335     -4.06354         0.251911     -0.598449      0.214513
O	     10.38514     12.02121     -4.13326         0.208264     -0.166239      0.495076
O	     16.53721      7.99598     -5.90580         0.665686      0.319257     -0.638166
O	     16.46237     12.03502    -10.02742         0.732938      0.735481     -0.865778
O	      8.35772      5.85697     -3.87727         0.039991      0.407579     -0.443621
O	      8.33464      9.84936     -7.87323        -0.060020      0.137132     -0.616188
O	     15.66212     11.02246     -5.03540         1.081731      0.513619     -0.382600
O	     16.50598     13.94273     -7.98133         0.936404      0.583380     -0.239683
O	      8.35616      7.82774     -1.91116         0.035742      0.552059     -0.080791
O	      8.33784     11.82299     -5.90148        -0.036179      0.481861     -0.458441
O	      2.06566      7.81468     -0.04792        -0.336894      0.698765     -0.050288
O	      2.10992     11.81876     -4.01081        -0.601934      0.655752     -0.298250
O	     10.48924      9.80431     -1.91902        -0.202068      0.480954     -0.102665
O	     10.47743      9.87869     -9.84010        -0.251361      0.292388     -0.621980
O	      2.06357      5.97586     -1.88180        -0.354391      0.355162     -0.663971
O	      2.11767      9.91941     -5.89332        -0.651099      0.687382     -0.604250
O	     10.50093      7.82582     -3.89483        -0.230536      0.354980     -0.492639
O	     10.46088     11.84786     -7.87642        -0.260885      0.678754     -0.511357
