# total energy = -590.84325522 eV
 
CRYSTAL
PRIMVEC
0.000875 4.042078 4.035190 
17.068983 4.102396 -4.091861 
-0.002040 8.192543 -8.178199 
PRIMCOORD
123 1
Li	      8.54790      2.07813     -2.07051         0.019964      0.099973     -0.053210
Li	      8.54024      6.21630     -6.16728         0.001390     -0.032127     -0.009345
Li	      0.20095      8.25942     -8.20632         0.247352      0.062994      0.014203
Li	      0.15398      4.27299     -4.04470         0.291960      0.183350      0.070222
Li	      8.54718      4.10822     -0.04607         0.023151      0.067022     -0.087012
Li	      8.54081      8.22900     -4.15841        -0.003106     -0.000062      0.016380
Li	      0.20104      2.09358      1.93159         0.268334     -0.050607     -0.017074
Li	      0.14286      6.11740     -2.19755         0.256810      0.015174     -0.110366
Li	      2.07342      2.02192     -0.01207         0.032289      0.010948      0.019223
Li	      2.09001      6.19296     -4.13497         0.038405      0.004502      0.012485
Li	     10.69099      4.05911     -2.01959        -0.117330      0.088516     -0.049473
Li	     10.67506      8.17450     -6.14005        -0.064447      0.011995      0.024686
Li	      2.08436      4.07675      1.99356         0.070427     -0.005355     -0.036228
Li	      2.36811      8.23151     -2.11371         0.031328     -0.027480     -0.011663
Li	     10.68477      6.09050      0.00916        -0.101097      0.057035     -0.100823
Li	     10.71268     10.20950     -4.11098        -0.053885     -0.021277     -0.001955
Li	      4.27408      2.06639     -2.02885        -0.011299      0.032097     -0.073368
Li	      4.32094      6.21025     -6.17813         0.029981      0.005668      0.042259
Li	     12.70011      4.10262     -4.05410        -0.127028     -0.004526     -0.063542
Li	     12.66080      8.18128     -8.14246        -0.116542      0.006791     -0.033270
Li	      4.35959      4.08462     -0.02570         0.005228      0.059576     -0.043202
Li	      4.30839      8.22648     -4.16583         0.017757     -0.029673      0.004340
Li	     12.69924      6.08754     -2.00897        -0.154604      0.114317     -0.075846
Li	     12.65915     10.22493     -6.16321        -0.119367     -0.010793      0.008072
Li	      6.45656      4.07360     -2.04090         0.015920      0.052213     -0.019575
Li	      6.43744      8.19691     -6.15493        -0.003864     -0.003206      0.039692
Li	     15.05069      6.31616     -4.31524         0.029349      0.083996     -0.015248
Li	     15.13612     10.39245     -8.31996        -0.212105      0.017836     -0.000205
Li	      6.46102      6.10589     -0.00446        -0.002107      0.013348     -0.045544
Li	      6.43817     10.22594     -4.12389         0.001962     -0.032729     -0.003334
Li	     15.03244      8.38524     -2.28814        -0.018180      0.070653     -0.112128
Li	     14.88431     12.35102     -6.22706        -0.065842     -0.083620     -0.009939
Ni	      0.06931      2.00879     -1.97922        -0.500275      0.076389      0.238775
Ni	      0.00057      6.26136     -6.13623         0.703573      0.063578      0.113487
Ni	      8.60629      4.09533     -4.08351        -0.002454      0.224106      0.261105
Ni	      8.58829      8.22862     -8.17785         0.002166     -0.279983     -0.178388
Ni	      0.02297      3.99844     -0.02907        -0.602807     -0.118067      0.054948
Ni	      0.01662      8.19929     -4.20614         0.688624     -0.002719     -0.029481
Ni	      8.60581      6.12578     -2.05667        -0.009752     -0.065423     -0.034199
Ni	      8.58877     10.23959     -6.17063        -0.024517      0.002282      0.124561
Ni	      2.10024      4.12999     -2.08139         0.315922      0.304652      0.016063
Ni	      2.14267      8.22916     -6.18496        -0.012385      0.171616      0.186886
Ni	     10.78870      6.13313     -4.10392        -0.163010      0.082926      0.231194
Ni	     10.76513     10.26671     -8.20911        -0.068052      0.155274      0.132024
Ni	      2.19175      6.15175     -0.04483         0.140790      0.093692     -0.212764
Ni	      2.13034     10.26283     -4.15866         0.086789     -0.048559     -0.090570
Ni	     10.79176      8.17129     -2.07199        -0.094081     -0.089189     -0.191143
Ni	     10.76236     12.29126     -6.18815        -0.097027     -0.260729     -0.029145
Ni	      4.26014      4.12529     -4.10333         0.020630      0.230967      0.255620
Ni	      4.25190      8.26080     -8.21542         0.025887     -0.282796     -0.160955
Ni	     12.95317      6.15420     -6.11998        -0.105822     -0.190939     -0.228783
Ni	     12.91678     10.24635    -10.21307        -0.133309      0.111453      0.182495
Ni	      4.26127      6.15889     -2.08032         0.035794     -0.063112     -0.064666
Ni	      4.25486     10.27390     -6.19970         0.032400      0.010044      0.096921
Ni	     12.92577      8.16602     -4.10660        -0.061346      0.057618      0.045061
Ni	     12.93467     12.28084     -8.19212        -0.140722     -0.048066      0.019326
Ni	      6.41391      6.18235     -4.13729         0.025669      0.054333      0.077277
Ni	      6.41365     10.29784     -8.25912         0.029471     -0.250358      0.821933
Ni	     15.02934      8.15280     -6.14465         0.007360      0.200874      0.091566
Ni	     15.01566     12.22333    -10.14825        -0.083580      0.139056     -0.058521
Ni	      6.42582      8.21326     -2.10881         0.043974     -0.252189     -0.231464
Ni	      6.41484     12.32940     -6.22998         0.005610     -0.585020      0.443901
Ni	     14.98964     10.31742     -4.21402        -0.189244     -0.168851      0.093017
Ni	     15.04268     14.23808     -8.12446        -0.149289      0.057439     -0.307723
O	      4.23219      4.22565     -2.17084         0.001096     -0.009582      0.010710
O	      4.27152      8.33370     -6.28722         0.034083      0.026809      0.131221
O	     13.00128      6.12386     -4.19371         0.154996      0.215084      0.178736
O	     12.92702     10.34102     -8.17332         0.140648     -0.117425     -0.100267
O	      4.26949      6.23670     -0.13288        -0.028281     -0.130201     -0.014372
O	      4.29073     10.37137     -4.25615         0.015139     -0.010898      0.013565
O	     12.98440      8.24342     -2.05783         0.131269     -0.049676     -0.174854
O	     12.88193     12.26300     -6.24679         0.167595      0.005332      0.107419
O	      6.43366      4.24690     -4.22134        -0.009520      0.045086      0.137662
O	      6.42788      8.38367     -8.32892        -0.014976     -0.174769     -0.029979
O	     15.08802     10.28000     -2.21758         0.014743     -0.284406     -0.111206
O	     15.06724     10.24536    -10.22386        -0.344685     -0.005337      0.205694
O	      6.43592      6.27136     -2.20294        -0.017014      0.005485     -0.000810
O	      6.43161     10.39079     -6.32532        -0.007206     -0.019624      0.021167
O	     15.10547      8.29707     -4.18884        -0.066925      0.026170      0.010260
O	     15.08411     12.28874     -8.17155        -0.298602     -0.007986      0.041081
O	      4.26867      6.06148     -4.01979         0.020464     -0.006198     -0.019388
O	      4.26334     10.17853     -8.14369        -0.010976      0.093642      0.096325
O	     13.03732      8.11990     -6.17981         0.064244      0.259252      0.147181
O	     13.04350     12.32566    -10.17012         0.136621     -0.176290     -0.053865
O	      4.33541      8.09391     -1.97934        -0.080189     -0.026164     -0.165938
O	      4.30712     12.20338     -6.12319        -0.003378     -0.035064      0.053980
O	     12.95805     10.21046     -4.03451         0.069416     -0.118413     -0.122075
O	     13.05466     14.26232     -8.23454         0.150498      0.005804      0.086812
O	      6.42624      1.98000     -1.94040         0.004227      0.442980     -0.732752
O	      6.43304      6.07500     -6.05863         0.001956      0.194459      0.049733
O	      6.43536      3.99031      0.06236        -0.013084      0.500741     -0.475639
O	      6.43024      8.10405     -4.03340        -0.002992     -0.000024     -0.018418
O	     17.03580      6.11811     -4.10778        -0.326236      0.062034     -0.058713
O	      0.00628      6.18051     -4.12641         0.020966     -0.022001      0.016874
O	      8.59665      4.19889     -2.15713        -0.027196      0.036267     -0.033492
O	      8.58180      8.30886     -6.27097        -0.001792      0.031179      0.148616
O	     17.03719      8.18955     -2.23516        -0.235452     -0.037757      0.074536
O	      8.59523      6.23034     -0.12946        -0.053739     -0.136894     -0.064134
O	      8.58586     10.34213     -4.24133         0.012358      0.005594     -0.011903
O	      1.90153      4.24619     -0.06605         0.536584      0.077881      0.004085
O	      2.05511      8.34409     -4.15844        -0.023791     -0.069139      0.094342
O	     10.73690      6.24032     -2.17144         0.065037     -0.081642     -0.015996
O	     10.68344     10.33890     -6.28084         0.081954     -0.006385      0.106542
O	      2.01317      6.17593      1.84719         0.417009     -0.133072     -0.103979
O	      2.03612     10.27072     -2.23728        -0.022813     -0.223940      0.039696
O	     10.72170      4.19772     -4.18762         0.088754      0.016561      0.181100
O	     10.70135      8.34617     -8.29465         0.084205     -0.180684      0.085944
O	     17.04213      8.24012     -6.08612        -0.366673      0.002897      0.011152
O	     16.96499     12.40248    -10.33358        -0.367883     -0.198973      0.262715
O	      8.61290      6.03580     -3.99565        -0.017614      0.009336     -0.012954
O	      8.58911     10.15009     -8.11362         0.046479      0.103432      0.069665
O	     16.14031     11.35900     -5.18913        -0.193923      0.019882     -0.190120
O	     17.00993     14.36844     -8.22502        -0.409691     -0.138491     -0.042496
O	      8.61129      8.06675     -1.96952        -0.006159     -0.047737     -0.148053
O	      8.59241     12.18397     -6.08167         0.015817     -0.024255      0.034037
O	      2.12873      8.05327     -0.04938        -0.023671     -0.032698     -0.194019
O	      2.17436     12.17962     -4.13327         0.098724     -0.087110     -0.143586
O	     10.80863      6.06159     -6.01281         0.055230      0.072354     -0.214329
O	     10.79734     10.18031    -10.14054         0.124253      0.151966     -0.013367
O	      2.12657      6.15833     -1.93926        -0.015600      0.025237     -0.002150
O	      2.18232     10.22228     -6.07326         0.105431      0.006273      0.062757
O	     10.82155      8.06476     -4.01375         0.109946      0.107957     -0.053180
O	     10.78028     12.20961     -8.11691         0.082529     -0.043707     -0.109140
