# total energy = -589.89450933 eV
 
CRYSTAL
PRIMVEC
0.000879 4.062188 4.055265 
17.153903 4.122806 -4.112219 
-0.002050 8.233302 -8.218886 
PRIMCOORD
123 1
Li	      8.63318      2.09887     -2.09116         0.038187      0.175731     -0.084275
Li	      8.62544      6.29853     -6.20863        -0.004767     -0.069996     -0.010503
Li	      0.20502      0.10851     -0.06930         0.455814      0.083940      0.043365
Li	      0.15552      4.31562     -4.08505         0.565554      0.403005      0.186472
Li	      8.63245      4.14921     -0.04653         0.038528      0.109376     -0.144654
Li	      8.62601      8.31108     -4.19988        -0.013164     -0.006696      0.041685
Li	      0.20303      2.15543      1.90997         0.490626     -0.092369     -0.000392
Li	      0.14429      6.17842     -2.21947         0.461889      0.015492     -0.226325
Li	      2.09412      2.04209     -0.01220         0.074023      0.049175      0.017671
Li	      2.11087      6.25473     -4.17622         0.040288      0.007186      0.024422
Li	     10.79764      4.09960     -2.03974        -0.180006      0.163538     -0.092901
Li	     10.78154      8.25604     -6.20130        -0.085714      0.023405      0.043999
Li	      2.10514      4.11740      2.01344         0.138877      0.019578     -0.092609
Li	      2.39174      8.31362     -2.13480         0.069604     -0.051800     -0.010980
Li	     10.79135      6.15124      0.00925        -0.155653      0.104601     -0.197066
Li	     10.81954     10.31134     -4.15199        -0.063705     -0.037306     -0.008273
Li	      4.31672      2.10721     -2.02891        -0.015315      0.069629     -0.162627
Li	      4.36405      6.27219     -6.23976         0.054786      0.017133      0.066233
Li	     12.82680      4.16376     -4.07437        -0.201489      0.014337     -0.150512
Li	     12.78709      8.28310     -8.20351        -0.161123     -0.009983     -0.052424
Li	      4.40308      4.12537     -0.02596         0.023459      0.108957     -0.088286
Li	      4.35136      8.30854     -4.20738         0.036403     -0.043770     -0.001018
Li	     12.82591      6.14826     -2.02901        -0.257268      0.188598     -0.129848
Li	     12.78542     10.32692     -6.22468        -0.179592      0.019927     -0.009582
Li	      6.52097      4.11423     -2.06126         0.031705      0.117974     -0.054799
Li	      6.50166      8.27868     -6.21633        -0.005745      0.016774      0.051159
Li	     15.20082      6.37916     -4.35828         0.016800      0.187311     -0.051717
Li	     15.28710     10.49612     -8.40296        -0.495853      0.064654     -0.019598
Li	      6.52546      6.16680     -0.00451         0.003801      0.044758     -0.106147
Li	      6.50238     10.32794     -4.16503         0.009212     -0.036772     -0.025552
Li	     15.18240      8.46888     -2.31097        -0.071924      0.152780     -0.225149
Li	     15.03277     12.47421     -6.28917        -0.177617     -0.151065     -0.012785
Ni	      0.15535      2.04934     -2.01942        -1.293533      0.136598      0.562306
Ni	      0.00058      6.32381     -6.19744         1.516906      0.306641      0.188103
Ni	      8.69215      4.13617     -4.12424         0.029154      0.463380      0.456669
Ni	      8.67395      8.33091     -8.23925         0.019462     -0.506785     -0.389692
Ni	      0.10855      4.05883     -0.04982        -1.544950     -0.345379      0.122698
Ni	      0.01678      8.28108     -4.24810         1.481379      0.001596     -0.253941
Ni	      8.69165      6.18688     -2.07718         0.016202     -0.091662     -0.107179
Ni	      8.67445     10.34173     -6.23218        -0.004600      0.033733      0.172861
Ni	      2.12120      4.17119     -2.10215         0.700604      0.586068     -0.003360
Ni	      2.16403      8.31124     -6.24665         0.022776      0.338572      0.326147
Ni	     10.89633      6.19430     -4.14485        -0.219897      0.155229      0.442558
Ni	     10.87253     10.36913     -8.29100        -0.021971      0.291978      0.251920
Ni	      2.21361      6.21311     -0.04528         0.354037      0.214981     -0.411548
Ni	      2.15159     10.36520     -4.20014         0.199588     -0.093140     -0.153837
Ni	     10.89941      8.25280     -2.09266        -0.089112     -0.188339     -0.352682
Ni	     10.86973     12.41387     -6.24988        -0.067384     -0.491680     -0.060278
Ni	      4.30264      4.16644     -4.14426         0.019907      0.456584      0.480932
Ni	      4.29432      8.36342     -8.27719         0.045513     -0.541426     -0.320223
Ni	     13.08239      6.23580     -6.16085        -0.155630     -0.399258     -0.426279
Ni	     13.04564     10.34857    -10.31495        -0.212481      0.187416      0.357516
Ni	      4.30377      6.22033     -2.10108         0.053890     -0.095315     -0.121562
Ni	      4.29731     10.37638     -6.26154         0.052021      0.024006      0.180840
Ni	     13.05469      8.24748     -4.14756        -0.125150      0.083031      0.105509
Ni	     13.06368     12.40335     -8.27384        -0.213242     -0.139017      0.050765
Ni	      6.47789      6.24402     -4.17856         0.017763      0.067824      0.166738
Ni	      6.47763     10.40056     -8.34150         0.035119     -0.584784      1.777305
Ni	     15.17926      8.23413     -6.20595        -0.081789      0.165540      0.367629
Ni	     15.16544     12.34526    -10.24949        -0.252280      0.046280      0.110993
Ni	      6.48992      8.29519     -2.12985         0.036444     -0.499259     -0.425781
Ni	      6.47883     12.45239     -6.29213        -0.017988     -1.220094      0.937208
Ni	     15.13916     10.42033     -4.25605        -0.286653     -0.277089      0.172624
Ni	     15.19273     14.38011     -8.20550        -0.338300     -0.139019     -0.377897
O	      4.27441      4.26780     -2.19250        -0.073220      0.081306     -0.089412
O	      4.31412      8.41683     -6.34993        -0.022117      0.131574      0.149397
O	     13.13098      6.18494     -4.23554         0.167491      0.423193      0.185299
O	     13.05596     10.44418     -8.25485         0.118200     -0.119968     -0.204823
O	      4.31208      6.29892     -0.13422        -0.130903     -0.133277     -0.099789
O	      4.33353     10.47482     -4.29860        -0.049244      0.099861     -0.045962
O	     13.11391      8.32564     -2.07835         0.139167      0.089780     -0.348348
O	     13.01043     12.38532     -6.30911         0.175337      0.020304      0.073037
O	      6.49782      4.28925     -4.26343        -0.015038      0.192807      0.153548
O	      6.49201      8.48751     -8.39182        -0.025176     -0.229682     -0.167781
O	     15.23765      6.32035     -6.29497         0.119849     -0.399649     -0.285957
O	     15.21753     10.34755    -10.32584        -0.763967      0.139472      0.239171
O	      6.50012      6.33391     -2.22491        -0.016401      0.123234     -0.115473
O	      6.49577     10.49444     -6.38841        -0.012603      0.079257     -0.061155
O	     15.25614      8.37984     -4.23063         0.067344      0.110043     -0.099069
O	     15.23456     12.41132     -8.25306        -0.734068      0.137698     -0.063088
O	      4.31124      6.12194     -4.05988         0.087195     -0.118131      0.053757
O	      4.30586     10.28005     -8.22492         0.023464      0.072711      0.281120
O	     13.16736      8.20089     -6.24146         0.242492      0.329030      0.307083
O	     13.17361     12.44861    -10.27157         0.410636     -0.362852      0.035502
O	      4.37866      8.17465     -1.99908        -0.063240     -0.116457     -0.202905
O	      4.35008     12.32510     -6.18427         0.049407     -0.171798      0.222687
O	     13.08730     10.31232     -4.07476         0.228188     -0.224973     -0.089817
O	     13.18487     14.40458     -8.31667         0.406035     -0.086053      0.204710
O	      6.49034      2.01996     -1.93958         0.015317      0.783521     -1.458696
O	      6.49721      6.13560     -6.11906         0.003009      0.245034      0.201200
O	      6.49954      4.03011      0.06298        -0.011304      0.924078     -0.871269
O	      6.49437      8.18489     -4.07363        -0.006403     -0.110048      0.091793
O	      0.05183      2.05634     -0.03653        -0.581075      0.309235     -0.276623
O	      0.00635      6.24217     -4.16757         0.172057      0.040076     -0.027088
O	      8.68241      4.24078     -2.17865        -0.056238      0.184184     -0.181268
O	      8.66741      8.39175     -6.33352        -0.012322      0.156441      0.172888
O	      0.05324      4.14843      1.85476        -0.443224      0.020737     -0.125201
O	      8.68096      6.29249     -0.13076        -0.099957     -0.139346     -0.231194
O	      8.67151     10.44529     -4.28363         0.017396      0.136835     -0.112791
O	      1.92051      4.28855     -0.06672         1.194463      0.259483     -0.127886
O	      2.07561      8.42733     -4.19992        -0.067191     -0.002671     -0.017248
O	     10.84401      6.30258     -2.19310         0.002511      0.034560     -0.196921
O	     10.79002     10.44203     -6.34348         0.030712      0.116080      0.044382
O	      2.03326      6.23754      1.86561         0.954817     -0.074354     -0.343238
O	      2.05642     10.37317     -2.25960        -0.074667     -0.225323     -0.054501
O	     10.82865      4.23959     -4.22939         0.043137      0.196130      0.170458
O	     10.80809      8.44962     -8.35721         0.048775     -0.211489     -0.009462
O	      0.05821      4.19950     -2.03460        -0.786211     -0.107434      0.194047
O	     17.13423     12.52619    -10.43665        -0.812221     -0.466211      0.603902
O	      8.69881      6.09601     -4.03551        -0.028858     -0.094076      0.083666
O	      8.67478     10.25134     -8.19456         0.071030      0.099867      0.218944
O	     16.30131     11.47231     -5.24090        -0.643616     -0.178606     -0.210007
O	      0.02572     10.38896     -4.19484        -0.921163     -0.352664      0.048266
O	      8.69719      8.14721     -1.98916        -0.012893     -0.194239     -0.167196
O	      8.67813     12.30551     -6.14234         0.021966     -0.128417      0.172643
O	      2.14997      8.13361     -0.04988         0.068480     -0.194900     -0.242629
O	      2.19605     12.30111     -4.17450         0.313144     -0.282903     -0.060182
O	     10.91643      6.14226     -6.05260         0.127359     -0.059412     -0.264615
O	     10.90505     10.28186    -10.24169         0.227061      0.134714      0.183279
O	      2.14779      6.21975     -1.95861         0.077850     -0.061630      0.128653
O	      2.20410     10.32424     -6.13383         0.315596     -0.221253      0.212990
O	     10.92949      8.14521     -4.05378         0.205354      0.040625      0.074664
O	     10.88782     12.33140     -8.19788         0.162048     -0.249369      0.000459
