# total energy = -587.98049269 eV
 
CRYSTAL
PRIMVEC
0.000884 4.082298 4.075341 
17.238824 4.143216 -4.132576 
-0.002060 8.274061 -8.259574 
PRIMCOORD
123 1
Li	      8.71886      2.11969     -2.11191         0.059468      0.259309     -0.117736
Li	      8.71105      6.38125     -6.25008        -0.010723     -0.098182     -0.015702
Li	      0.20704      0.15055     -0.11088         0.668265      0.108230      0.071158
Li	      0.15706      4.35846     -4.12559         0.867669      0.662926      0.352855
Li	      8.71813      4.19039     -0.04699         0.052563      0.145837     -0.197380
Li	      8.71162      8.39357     -4.24158        -0.020334     -0.008547      0.061311
Li	      0.20504      2.21779      1.88804         0.699843     -0.117840      0.019559
Li	      0.14573      6.23974     -2.24150         0.650476      0.009767     -0.343567
Li	      2.11490      2.06236     -0.01231         0.165326      0.102451      0.017041
Li	      2.13181      6.31681     -4.21767         0.039984      0.006441      0.031271
Li	     10.90482      4.14029     -2.05998        -0.228785      0.233240     -0.135747
Li	     10.88856      8.33798     -6.26285        -0.104470      0.038056      0.063174
Li	      2.12605      4.15828      2.03342         0.252601      0.037225     -0.141617
Li	      2.41548      8.39614     -2.15599         0.103595     -0.065575     -0.009559
Li	     10.89845      6.21230      0.00935        -0.202669      0.159616     -0.304011
Li	     10.92692     10.41368     -4.19320        -0.072050     -0.053727     -0.015780
Li	      4.35957      2.14834     -2.02888        -0.016848      0.106093     -0.263529
Li	      4.40735      6.33444     -6.30168         0.073212      0.028076      0.087188
Li	     12.95412      4.22530     -4.09464        -0.246529      0.030225     -0.241824
Li	     12.91402      8.38552     -8.26475        -0.198205     -0.015667     -0.078663
Li	      4.44679      4.16632     -0.02621         0.042789      0.157258     -0.131377
Li	      4.39455      8.39101     -4.24914         0.053437     -0.056107     -0.006225
Li	     12.95322      6.20928     -2.04915        -0.337873      0.264134     -0.182626
Li	     12.91233     10.42942     -6.28647        -0.226101      0.047156     -0.030956
Li	      6.58569      4.15507     -2.08172         0.041345      0.177684     -0.084734
Li	      6.56620      8.36085     -6.27803        -0.006464      0.030170      0.060576
Li	     15.35170      6.44248     -4.40155        -0.021995      0.286570     -0.087086
Li	     15.43885     10.60030     -8.48637        -0.867235      0.104269     -0.034184
Li	      6.59023      6.22801     -0.00455         0.002644      0.076139     -0.169987
Li	      6.56692     10.43045     -4.20637         0.010760     -0.045501     -0.039681
Li	     15.33308      8.55294     -2.33391        -0.135481      0.224485     -0.332888
Li	     15.18199     12.59803     -6.35159        -0.292620     -0.227550     -0.002721
Ni	      0.24222      2.09019     -2.05992        -2.351588      0.154633      0.871218
Ni	      0.00059      6.38658     -6.25895         2.588462      0.518692      0.263354
Ni	      8.77841      4.17722     -4.16517         0.056344      0.677584      0.633859
Ni	      8.76005      8.43381     -8.30085         0.041076     -0.710013     -0.571463
Ni	      0.19497      4.11964     -0.07078        -2.813397     -0.592739      0.197387
Ni	      0.01695      8.36327     -4.29026         2.525713     -0.013703     -0.441498
Ni	      8.77791      6.24828     -2.09780         0.042638     -0.105757     -0.166229
Ni	      8.76055     10.44438     -6.29404         0.024820      0.063580      0.219882
Ni	      2.14225      4.21259     -2.12301         1.233308      0.858998     -0.046137
Ni	      2.18551      8.39373     -6.30865         0.115666      0.464786      0.463753
Ni	     11.00448      6.25579     -4.18600        -0.260038      0.225157      0.631890
Ni	     10.98044     10.47204     -8.37329         0.040692      0.415640      0.363997
Ni	      2.23559      6.27478     -0.04573         0.562830      0.339306     -0.606917
Ni	      2.17296     10.46809     -4.24183         0.397666     -0.143316     -0.193641
Ni	     11.00759      8.33471     -2.11343        -0.077150     -0.278418     -0.496830
Ni	     10.97761     12.53708     -6.31191        -0.017646     -0.697396     -0.089408
Ni	      4.34535      4.20779     -4.18539         0.016925      0.666189      0.685073
Ni	      4.33693      8.46663     -8.33916         0.062308     -0.779355     -0.461555
Ni	     13.21225      6.31791     -6.20183        -0.208125     -0.584691     -0.619296
Ni	     13.17512     10.45128    -10.41733        -0.284686      0.251477      0.517624
Ni	      4.34648      6.28207     -2.12194         0.062185     -0.120377     -0.168959
Ni	      4.33995     10.47937     -6.32369         0.058500      0.029855      0.260377
Ni	     13.18427      8.32935     -4.18873        -0.177194      0.117795      0.155092
Ni	     13.19335     12.52645     -8.35596        -0.289127     -0.228413      0.077529
Ni	      6.54218      6.30600     -4.22004         0.002004      0.085676      0.245478
Ni	      6.54192     10.50379     -8.42430         0.028816     -0.941289      2.847611
Ni	     15.32993      8.31586     -6.26755        -0.199263      0.144367      0.620784
Ni	     15.31598     12.46779    -10.35121        -0.452691     -0.031797      0.260895
Ni	      6.55433      8.37752     -2.15099         0.023334     -0.718771     -0.603372
Ni	      6.54313     12.57598     -6.35458        -0.045811     -1.856797      1.429281
Ni	     15.28942     10.52376     -4.29830        -0.392545     -0.387404      0.228355
Ni	     15.34353     14.52284     -8.28695        -0.547562     -0.314975     -0.443171
O	      4.31684      4.31016     -2.21426        -0.138435      0.136392     -0.183223
O	      4.35695      8.50037     -6.41297        -0.072087      0.184219      0.167169
O	     13.26130      6.24633     -4.27758         0.166474      0.595436      0.194866
O	     13.18555     10.54784     -8.33678         0.096304     -0.160451     -0.305046
O	      4.35488      6.36144     -0.13554        -0.228841     -0.148625     -0.180875
O	      4.37655     10.57879     -4.34127        -0.106934      0.186411     -0.060680
O	     13.24408      8.40828     -2.09898         0.143172      0.219635     -0.499464
O	     13.13956     12.50825     -6.37173         0.172971      0.050506      0.080903
O	      6.56233      4.33183     -4.30576        -0.018363      0.313972      0.172875
O	      6.55645      8.59196     -8.45494        -0.025102     -0.287839     -0.277446
O	     15.38890      6.40330     -6.33728         0.254558     -0.526099     -0.428578
O	     15.36857     10.45027    -10.42833        -1.421966      0.254276      0.253932
O	      6.56464      6.39678     -2.24700        -0.020296      0.219653     -0.202412
O	      6.56024     10.59860     -6.45183        -0.014997      0.155635     -0.122262
O	     15.40757      8.46301     -4.27261         0.205010      0.186188     -0.196851
O	     15.38577     12.53451     -8.33497        -1.392587      0.289428     -0.147902
O	      4.35404      6.18271     -4.10019         0.147826     -0.214543      0.114624
O	      4.35066      2.10802     -0.04698         0.055105      0.061407      0.427684
O	     13.29805      8.28229     -6.30341         0.413749      0.397047      0.442809
O	     13.30643      4.29810     -2.11394         0.676246     -0.542152      0.091731
O	      4.42211      8.25578     -2.01892        -0.046831     -0.203837     -0.239581
O	      4.39532      4.17337      2.01392         0.104449     -0.241723      0.371826
O	     13.21720     10.41467     -4.11520         0.386800     -0.321539     -0.055010
O	     13.31781      6.27349     -0.13965         0.661690     -0.126328      0.332273
O	      6.55476      2.06021     -1.93865         0.028672      1.152822     -2.314148
O	      6.56171      6.19650     -6.17980         0.005383      0.291882      0.335260
O	      6.56406      4.07011      0.06362        -0.011117      1.373435     -1.293815
O	      6.55884      8.26613     -4.11407        -0.007814     -0.205685      0.190137
O	      0.13768      2.09726     -0.05735        -0.860445      0.564200     -0.487449
O	      0.00642      6.30411     -4.20894         0.394847      0.084683     -0.051990
O	      8.76859      4.28286     -2.20026        -0.077258      0.308767     -0.318737
O	      8.75342      8.47503     -6.39638        -0.016952      0.248042      0.197382
O	      0.13909      4.21012      1.85271        -0.671547      0.110726     -0.305820
O	      8.76713      6.35495     -0.13205        -0.144647     -0.139497     -0.386242
O	      8.75758     10.54897     -4.32615         0.018906      0.251790     -0.179492
O	      1.93957      4.33111     -0.06738         2.192151      0.425614     -0.249103
O	      2.09620      8.51097     -4.24160        -0.119991      0.053049     -0.101351
O	     10.95164      6.36513     -2.21487        -0.061703      0.151656     -0.359653
O	     10.89711     10.54567     -6.40645        -0.033142      0.226836     -0.013772
O	      2.05255      2.21714     -2.19120         1.711841     -0.012950     -0.527871
O	      2.07595      6.39383     -6.35737        -0.125857     -0.241354     -0.140606
O	     10.93612      4.28167     -4.27136        -0.016935      0.371013      0.151861
O	     10.91538      8.55371     -8.41998        -0.001937     -0.242792     -0.106839
O	      0.14414      4.26169     -2.07526        -1.299016     -0.223406      0.362589
O	      0.06547      8.50731     -6.40767        -1.310638     -0.682378      0.893815
O	      8.78516      6.15651     -4.07556        -0.040689     -0.181826      0.160255
O	      8.76089     10.35309     -8.27589         0.102105      0.090665      0.336358
O	     16.46312     11.58618     -5.29292        -1.101195     -0.407727     -0.288387
O	      0.11131     10.51258     -4.25694        -1.498602     -0.550069      0.136285
O	      8.78352      8.22807     -2.00890        -0.025166     -0.320992     -0.191091
O	      8.76427     12.42766     -6.20331         0.030769     -0.219407      0.295700
O	      2.17130      8.21434     -0.05037         0.153349     -0.317505     -0.306153
O	      2.21696      8.34090     -8.29127         0.534312     -0.481394      0.004464
O	     11.02480      6.22343     -6.09250         0.187600     -0.180675     -0.312291
O	     11.01327     10.38391    -10.34335         0.313153      0.120434      0.385002
O	      2.16911      6.28149     -1.97805         0.174849     -0.135887      0.227305
O	      2.22597     10.42672     -6.19472         0.522149     -0.405879      0.336468
O	     11.03797      8.22604     -4.09401         0.276055     -0.030941      0.194279
O	     10.99588     12.45379     -8.27924         0.218533     -0.437506      0.114777
