# total energy = -574.95784159 eV
 
CRYSTAL
PRIMVEC
0.000897 4.142628 4.135568 
17.493585 4.204446 -4.193649 
-0.002090 8.396337 -8.381637 
PRIMCOORD
123 1
Li	      8.97847      2.18281     -2.17480         0.130632      0.566744     -0.203820
Li	      8.97044      6.63247     -6.37506        -0.022243     -0.155264     -0.059791
Li	      0.21316      0.27912     -0.23804         1.287687      0.184434      0.145003
Li	      0.16174      4.48823     -4.24843         1.949367      1.746829      1.301373
Li	      8.97771      4.31516     -0.04839         0.101294      0.245226     -0.332582
Li	      8.97102      8.64350     -4.36787        -0.034858      0.009251      0.101802
Li	      0.21111      2.40791      1.82038         1.298794     -0.164011      0.114932
Li	      0.15006      6.42552     -2.30823         1.175345     -0.007573     -0.676160
Li	      2.17787      2.12376     -0.01268         0.887979      0.355777      0.037003
Li	      2.19528      6.50490     -4.34325         0.003280     -0.039159      0.069694
Li	     11.22950      4.26357     -2.12132        -0.351269      0.425964     -0.287033
Li	     11.21277      8.58624     -6.44932        -0.164450      0.053235      0.100481
Li	      2.18935      4.28209      2.09398         0.954343      0.032514     -0.190769
Li	      2.48739      8.64613     -2.22018         0.104488     -0.113402     -0.013022
Li	     11.22297      6.39728      0.00962        -0.338836      0.326120     -0.738073
Li	     11.25228     10.72374     -4.31805        -0.099670     -0.091683     -0.031841
Li	      4.48940      2.27352     -2.02817        -0.000796      0.206345     -0.676597
Li	      4.53859      6.52305     -6.48932         0.132646      0.106216      0.116410
Li	     13.33984      4.41233     -4.15544        -0.388350      0.123580     -0.640551
Li	     13.29855      8.69643     -8.44972        -0.275100     -0.035706     -0.141634
Li	      4.57920      4.29037     -0.02699         0.074154      0.237807     -0.218150
Li	      4.52540      8.64084     -4.37566         0.110381     -0.041702     -0.086371
Li	     13.33890      6.39417     -2.11016        -0.552665      0.510286     -0.378868
Li	     13.29679     10.73996     -6.47365        -0.338952      0.111915     -0.066985
Li	      6.78178      4.27878     -2.14370         0.109659      0.332396     -0.203502
Li	      6.76171      8.60979     -6.46495        -0.001619      0.046141      0.080679
Li	     15.80879      6.63430     -4.53260        -0.190228      0.591258     -0.213732
Li	     15.89853     10.91593     -8.73904        -2.880619      0.290346     -0.160395
Li	      6.78645      6.41345     -0.00468         0.044502      0.210880     -0.360317
Li	      6.76247     10.74102     -4.33162         0.035525     -0.075563     -0.052511
Li	     15.78964      8.80760     -2.40340        -0.348805      0.437314     -0.657976
Li	     15.63404     12.97314     -6.54071        -0.672783     -0.463702      0.086899
Ni	      0.50795      2.21457     -2.18323        -7.944048     -0.148211      1.599664
Ni	      0.00060      6.57673     -6.44531         8.290043      0.837206      0.781150
Ni	      9.03979      4.30160     -4.28919         0.127279      1.214756      1.043164
Ni	      9.02089      8.74614     -8.48690         0.101829     -1.226883     -0.969014
Ni	      0.45929      4.30442     -0.13485       -10.223712     -1.580545      0.289337
Ni	      0.01746      8.61228     -4.41801         8.038768     -0.454202     -0.687710
Ni	      9.03929      6.43433     -2.16026         0.187949     -0.132201     -0.315789
Ni	      9.02140     10.75536     -6.48145         0.131704      0.086666      0.341405
Ni	      2.20604      4.33802     -2.18623         4.032178      1.569526     -0.287557
Ni	      2.25059      8.64365     -6.49649         0.978673      0.597012      0.854138
Ni	     11.33214      6.44205     -4.31063        -0.351847      0.418249      1.044145
Ni	     11.30738     10.78385     -8.62260         0.155494      0.676149      0.641770
Ni	      2.30214      6.46161     -0.04709         1.009356      0.756170     -1.202552
Ni	      2.23765     10.77977     -4.36813         1.815672     -0.328680     -0.187663
Ni	     11.33535      8.58288     -2.17636        -0.055641     -0.458891     -0.847494
Ni	     11.30448     12.91037     -6.49985         0.060513     -1.194227     -0.116001
Ni	      4.47472      4.33308     -4.31001         0.005204      1.231990      1.173301
Ni	      4.46609      8.77995     -8.52635         0.123657     -1.350884     -0.747966
Ni	     13.60566      6.56724     -6.32537        -0.391301     -1.008786     -1.090408
Ni	     13.56740     10.76247    -10.72750        -0.510422      0.373709      0.911297
Ni	      4.47591      6.46912     -2.18511        -0.024572     -0.222372     -0.363774
Ni	      4.46918     10.79139     -6.51198         0.052423     -0.017775      0.459258
Ni	     13.57682      8.57734     -4.31345        -0.291492      0.204376      0.266969
Ni	     13.58618     12.89943     -8.60476        -0.509238     -0.506282      0.145228
Ni	      6.73697      6.49375     -4.34569        -0.000260      0.120892      0.353393
Ni	      6.73670     10.81653     -8.67513         0.027080     -2.010341      6.882393
Ni	     15.78637      8.56346     -6.45417        -0.629704      0.027686      1.310151
Ni	     15.77201     12.83902    -10.65942        -0.992351     -0.212116      0.579529
Ni	      6.74949      8.62696     -2.21504         0.066924     -1.180239     -1.060636
Ni	      6.73795     12.95043     -6.54378        -0.125188     -3.563202      2.813304
Ni	     15.74468     10.83711     -4.42629        -0.733301     -0.704630      0.385682
Ni	     15.80037     14.95526     -8.53369        -1.083401     -0.700217     -0.591584
O	      4.44538      4.43849     -2.28019        -0.311253      0.279058     -0.295609
O	      4.48667      8.75347     -6.60391        -0.193179      0.246603      0.161448
O	     13.65616      6.43232     -4.40495         0.210064      1.016629      0.163557
O	     13.57815     10.86190     -8.58501         0.035926     -0.078882     -0.499439
O	      4.48454      6.55085     -0.13958        -0.365382     -0.264895     -0.445188
O	      4.50687     10.89377     -4.47053        -0.270728      0.404276     -0.054900
O	     13.63843      8.65864     -2.16148         0.165602      0.567971     -0.855504
O	     13.53080     12.88069     -6.56145         0.213735      0.115603     -0.072576
O	      6.75772      4.46081     -4.43397        -0.057053      0.524427      0.285535
O	      6.75168      8.90900     -8.64557        -0.050979     -0.457835     -0.369877
O	     15.84712      6.65518     -6.46486         0.761961     -0.881839     -0.797749
O	     15.82617     10.76142    -10.73883        -5.856659      0.531028     -0.026368
O	      6.76008      6.58725     -2.31390        -0.354448      0.415623     -0.359426
O	      6.75558     10.91417     -6.64393        -0.056581      0.245995     -0.184604
O	     15.86634      8.71500     -4.39983         0.454468      0.405877     -0.475762
O	     15.84388     12.90772     -8.58315        -5.815811      0.889209     -0.357992
O	      4.48368      6.36680     -4.22227         0.311944     -0.323223      0.350114
O	      4.48016      2.29488     -0.17225         0.137444     -0.003250      0.941665
O	     13.69400      8.52889     -6.49109         0.856473      0.528690      0.774665
O	     13.70260      4.55017     -2.30076         1.407178     -1.001444      0.555631
O	      4.55379      8.50161     -2.07904        -0.107426     -0.434828     -0.409704
O	      4.52616      4.42172      1.95002         0.218659     -0.332020      0.753328
O	     13.61075     10.72477     -4.23773         0.774855     -0.545114      0.041606
O	     13.71431      6.58437     -0.26767         1.311879     -0.439699      0.717193
O	      6.74996      2.18278     -1.93527         0.051128      2.281237     -5.882264
O	      6.75708      6.38100     -6.36380         0.015668      0.379636      0.670016
O	      6.75951      4.19129      0.06550        -0.020750      2.746691     -2.683728
O	      6.75413      8.51226     -4.23657        -0.029447     -0.373495      0.424924
O	      0.40032      2.22184     -0.12104        -2.144910      1.329618     -1.140142
O	      0.00660      6.49182     -4.33425         1.849479      0.022212      0.135446
O	      9.02967      4.41039     -2.26578        -0.168287      0.615920     -0.631877
O	      9.01406      8.72738     -6.58683        -0.058199      0.386908      0.273484
O	      0.40177      4.39761      1.84590        -1.717039      0.575318     -0.747243
O	      9.02818      6.54417     -0.13599        -0.303709     -0.141794     -0.786677
O	      9.01833     10.86306     -4.45496         0.018555      0.535545     -0.263203
O	      1.99733      4.46007     -0.06939         9.087195      0.955395     -0.366380
O	      2.15862      8.76438     -4.36790        -0.269400      0.184974     -0.223891
O	     11.27773      6.55466     -2.28082        -0.200309      0.410257     -0.749183
O	     11.22156     10.85967     -6.59720        -0.158635      0.486071     -0.164971
O	      2.11368      2.34438     -2.19534         6.336663      0.169728     -0.539283
O	      2.13778      6.64543     -6.48554        -0.235877     -0.350615     -0.353147
O	     11.26175      4.40915     -4.39854        -0.166009      0.802103      0.162342
O	     11.24039      8.86961     -8.60957        -0.097819     -0.352646     -0.354716
O	      0.40695      4.45073     -2.19903        -3.924875     -0.485701      0.724550
O	      0.32594      8.82275     -6.66043        -3.342180     -0.930048      1.393236
O	      9.04674      6.33982     -4.19691        -0.082628     -0.405287      0.373172
O	      9.02175     10.66136     -8.52231         0.145615      0.087691      0.586986
O	     16.95330     11.93115     -5.45051        -2.514824     -1.338940     -1.078077
O	      0.37315     10.88774     -4.44567        -3.930349     -0.861445      0.213524
O	      9.04505      8.47306     -2.06872        -0.030546     -0.641711     -0.238838
O	      9.02522     12.79769     -6.38801         0.026848     -0.509412      0.577168
O	      2.23505      4.31629     -4.18744         0.464864     -0.443239     -0.418080
O	      2.28298      8.65047     -8.47703         1.216499     -1.120194      0.099489
O	     11.35307      6.46996     -6.21280         0.337049     -0.499749     -0.430973
O	     11.34119     10.69309    -10.65132         0.581903      0.111295      1.075872
O	      2.23369      6.46852     -2.03694         0.796271     -0.192928      0.164765
O	      2.29225     10.73718     -6.37917         1.108657     -0.784870      0.584377
O	     11.36663      8.47098     -4.21592         0.458962     -0.229594      0.488561
O	     11.32329     12.82460     -8.52576         0.402644     -0.903408      0.393996
