# total energy = -567.02722112 eV
 
CRYSTAL
PRIMVEC
0.000901 4.162738 4.155643 
17.578505 4.224856 -4.214006 
-0.002100 8.437096 -8.422324 
PRIMCOORD
123 1
Li	      9.06584      2.20405     -2.19596         0.156128      0.708865     -0.229388
Li	      9.05774      6.71723     -6.41692         0.016401     -0.131231     -0.096974
Li	      0.21523      0.32279     -0.28124         1.501591      0.224295      0.179636
Li	      0.16331      4.53191     -4.28977         2.305083      2.208285      1.792643
Li	      9.06508      4.35716     -0.04886         0.127870      0.264842     -0.360696
Li	      9.05833      8.72761     -4.41038        -0.062894      0.034045      0.064727
Li	      0.21316      2.47230      1.79721         1.499599     -0.168503      0.142066
Li	      0.15152      6.48806     -2.33070         1.234591      0.006931     -0.790920
Li	      2.19906      2.14443     -0.01280         1.380000      0.430177      0.104462
Li	      2.21666      6.56821     -4.38552         0.036754     -0.051548      0.071021
Li	     11.33879      4.30506     -2.14196        -0.387280      0.471998     -0.339316
Li	     11.32190      8.66980     -6.51209        -0.184956      0.063869      0.107421
Li	      2.21065      4.32376      2.11435         1.380891     -0.029477     -0.117076
Li	      2.51159      8.73028     -2.24179         0.033166     -0.093508     -0.062120
Li	     11.33219      6.45953      0.00972        -0.384978      0.376794     -0.939563
Li	     11.36178     10.82812     -4.36007        -0.112627     -0.096691     -0.039943
Li	      4.53310      2.31586     -2.02773         0.032360      0.268207     -0.923310
Li	      4.58276      6.58655     -6.55248         0.108929      0.168767      0.150878
Li	     13.46968      4.47548     -4.17571        -0.435582      0.154276     -0.829363
Li	     13.42799      8.80126     -8.51178        -0.295696     -0.040265     -0.159304
Li	      4.62375      4.33212     -0.02725         0.086446      0.300918     -0.280269
Li	      4.56944      8.72494     -4.41825         0.141337     -0.078422     -0.131943
Li	     13.46871      6.45640     -2.13070        -0.610189      0.601134     -0.456480
Li	     13.42620     10.84448     -6.53665        -0.374938      0.129120     -0.073928
Li	      6.84777      4.32043     -2.16456         0.116688      0.408325     -0.316087
Li	      6.82750      8.69358     -6.52787        -0.002425      0.064072      0.142877
Li	     15.96264      6.69887     -4.57671        -0.257346      0.682459     -0.269886
Li	     16.05326     11.02216     -8.82410        -3.999467      0.434308     -0.281340
Li	      6.85249      6.47586     -0.00473         0.030306      0.300244     -0.447933
Li	      6.82827     10.84555     -4.37377         0.057796     -0.108060     -0.051093
Li	     15.94330      8.89332     -2.42679        -0.430258      0.510179     -0.756078
Li	     15.78618     13.09940     -6.60437        -0.804488     -0.556592      0.133655
Ni	      0.59824      2.25662     -2.22493       -11.078438     -0.470229      1.646652
Ni	      0.00061      6.64075     -6.50804        11.445222      0.793724      1.145281
Ni	      9.12777      4.34347     -4.33094         0.106469      1.322748      1.243211
Ni	      9.10870      8.85148     -8.54932         0.119491     -1.379989     -1.065154
Ni	      0.54910      4.36683     -0.15662       -14.974666     -2.024604      0.204563
Ni	      0.01763      8.69610     -4.46101        11.017107     -0.798419     -0.624695
Ni	      9.12725      6.49695     -2.18128         0.357952     -0.249526     -0.317071
Ni	      9.10918     10.86004     -6.54453         0.173767      0.083315      0.386528
Ni	      2.22750      4.38024     -2.20751         5.577789      1.674063     -0.451277
Ni	      2.27249      8.72778     -6.55972         1.589989      0.560996      0.992920
Ni	     11.44243      6.50475     -4.35259        -0.357906      0.479197      1.131210
Ni	     11.41742     10.88880     -8.70652         0.173869      0.728677      0.718031
Ni	      2.32455      6.52450     -0.04755         1.133861      0.894910     -1.344981
Ni	      2.25944     10.88468     -4.41064         2.700412     -0.422127     -0.151159
Ni	     11.44566      8.66641     -2.19754         0.192303     -0.460135     -0.977635
Ni	     11.41449     13.03602     -6.56311         0.079168     -1.330937     -0.103267
Ni	      4.51827      4.37525     -4.35196         0.116152      1.434667      1.505413
Ni	      4.50956      8.88561     -8.58916         0.148119     -1.522759     -0.805302
Ni	     13.73806      6.65136     -6.36676        -0.435631     -1.127840     -1.216753
Ni	     13.69946     10.86722    -10.83191        -0.611248      0.387985      1.016227
Ni	      4.51947      6.53208     -2.20638        -0.059082     -0.473335     -0.529220
Ni	      4.51269     10.89642     -6.57536         0.055956     -0.038652      0.502184
Ni	     13.70896      8.66083     -4.35543        -0.315354      0.233082      0.304393
Ni	     13.71841     13.02497     -8.68850        -0.600189     -0.594737      0.163806
Ni	      6.80255      6.55695     -4.38798        -0.028780      0.118825      0.347858
Ni	      6.80226     10.92180     -8.75956         0.011021     -2.160677      8.398806
Ni	     15.94001      8.64681     -6.51698        -0.843524     -0.051695      1.509873
Ni	     15.92550     12.96397    -10.76316        -1.158191     -0.238857      0.616889
Ni	      6.81518      8.71093     -2.23659         0.012485     -0.686881     -1.163918
Ni	      6.80352     13.07647     -6.60747        -0.157747     -3.859930      3.123883
Ni	     15.89791     10.94258     -4.46936        -0.872164     -0.816374      0.453047
Ni	     15.95415     15.10080     -8.61674        -1.234445     -0.784499     -0.639672
O	      4.48863      4.48169     -2.30238        -0.492515      0.394223     -0.340192
O	      4.53033      8.83865     -6.66818        -0.259648      0.303557      0.131548
O	     13.78907      6.49492     -4.44782         0.217193      1.142645      0.152918
O	     13.71029     10.96761     -8.66856         0.029767     -0.016199     -0.540512
O	      4.52820      6.61460     -0.14094        -0.427919     -0.165224     -0.633458
O	      4.55073     10.99980     -4.51404        -0.403618      0.420124     -0.036757
O	     13.77116      8.74291     -2.18252         0.169020      0.653833     -0.958137
O	     13.66248     13.00605     -6.62531         0.256957      0.133368     -0.158198
O	      6.82348      4.50422     -4.47711        -0.074271      0.497060      1.000639
O	      6.81739      9.01592     -8.70954        -0.050078     -0.540856     -0.265006
O	     16.00134      6.74015     -6.50760         0.916540     -0.947983     -0.922807
O	     15.98021     10.86615    -10.84335        -8.619820      0.645012     -0.318074
O	      6.82588      6.65135     -2.33642        -0.565670      0.199774     -0.191214
O	      6.82132     11.02040     -6.70859        -0.069091      0.207814     -0.160733
O	     16.02074      8.79982     -4.44265         0.477005      0.485328     -0.590457
O	     15.99808     13.03334     -8.66668        -8.515770      1.230144     -0.417320
O	      4.52731      6.42876     -4.26336         0.290367     -0.441574      0.479679
O	      4.52376      2.35817     -0.21481         0.133532     -0.006581      1.216157
O	     13.82727      8.61190     -6.55426         0.986581      0.570837      0.863480
O	     13.83594      4.63540     -2.36403         1.630399     -1.130943      0.803022
O	      4.59810      8.58434     -2.09927         0.236869     -0.525377     -0.552579
O	      4.57020      4.50571      1.92811         0.274782     -0.388119      0.835879
O	     13.74321     10.82914     -4.27897         0.878947     -0.611649      0.062075
O	     13.84778      6.68941     -0.31117         1.504606     -0.578060      0.847844
O	      6.81565      2.22424     -1.93393         0.074308      2.459883     -7.348823
O	      6.82283      6.44310     -6.42574         0.024805      0.208138      0.515196
O	      6.82528      4.23209      0.06614        -0.003399      2.992762     -3.044830
O	      6.81987      8.59510     -4.27780        -0.022147     -0.503905     -0.026788
O	      0.48954      2.26397     -0.14268        -2.813860      1.566382     -1.396984
O	      0.00666      6.55500     -4.37644         2.784839     -0.154018      0.364629
O	      9.11754      4.45331     -2.28783        -0.194081      0.662083     -0.709950
O	      9.10179      8.81232     -6.65094        -0.051822      0.403655      0.294925
O	      0.49100      4.46092      1.84341        -2.263928      0.836366     -0.901088
O	      9.11604      6.60786     -0.13731        -0.343890     -0.143515     -0.833523
O	      9.10611     10.96879     -4.49832         0.030980      0.599400     -0.243202
O	      2.01676      4.50348     -0.07006        13.777706      1.319240     -0.232492
O	      2.17964      8.84968     -4.41041        -0.339347      0.272762     -0.165762
O	     11.38748      6.61844     -2.30301        -0.252830      0.516884     -0.853854
O	     11.33079     10.96536     -6.66141        -0.181739      0.529957     -0.203561
O	      2.13426      2.38741     -2.19653         9.264528      0.262943     -0.345719
O	      2.15860      6.73031     -6.52849        -0.297132     -0.476158     -0.451423
O	     11.37135      4.45206     -4.44135        -0.252904      0.915929      0.181841
O	     11.34980      8.97614     -8.67319        -0.121200     -0.414291     -0.426769
O	      0.49626      4.51455     -2.24089        -5.229066     -0.419443      0.740042
O	      0.41444      8.92912     -6.74571        -4.228425     -0.871774      1.419406
O	      9.13477      6.40153     -4.23775        -0.109294     -0.478104      0.411729
O	      9.10955     10.76511     -8.60525         0.151637      0.124225      0.652898
O	     17.11830     12.04727     -5.50356        -2.904890     -1.774654     -1.565803
O	      0.46211     11.01421     -4.50939        -5.031977     -0.826832      0.149977
O	      9.13308      8.55552     -2.08885        -0.520353     -0.614151     -0.323816
O	      9.11306     12.92223     -6.45017        -0.005976     -0.653285      0.608602
O	      2.25681      4.37851     -4.20802         0.520762     -0.474099     -0.285968
O	      2.30520      8.75488     -8.53936         1.438671     -1.419289      0.037266
O	     11.46358      6.55313     -6.25309         0.351834     -0.614261     -0.471758
O	     11.45158     10.79716    -10.75498         0.688777      0.152038      1.353980
O	      2.25543      6.53148     -2.05677         1.132143     -0.067831      0.094831
O	      2.31455     10.84167     -6.44124         1.277396     -0.821242      0.711605
O	     11.47726      8.55343     -4.25695         0.488161     -0.291957      0.561922
O	     11.43350     12.94941     -8.60874         0.450973     -1.012797      0.468424
