# total energy = -557.32921333 eV
 
CRYSTAL
PRIMVEC
0.000905 4.182847 4.175719 
17.663425 4.245266 -4.234364 
-0.002111 8.477855 -8.463012 
PRIMCOORD
123 1
Li	      9.15366      2.22540     -2.21724         0.181768      0.915805     -0.227685
Li	      9.14548      6.80249     -6.45890        -0.013069     -0.154754     -0.148205
Li	      0.21732      0.36687     -0.32486         1.700689      0.290597      0.169815
Li	      0.16489      4.57580     -4.33132         2.600692      2.725357      2.370850
Li	      9.15287      4.39936     -0.04933         0.129533      0.236101     -0.402801
Li	      9.14605      8.81215     -4.45309        -0.099953      0.101573      0.099581
Li	      0.21521      2.53720      1.77373         1.715168     -0.150737      0.174929
Li	      0.15299      6.55090     -2.35327         1.463783      0.057624     -0.846932
Li	      2.22037      2.16521     -0.01293         2.032535      0.468459      0.237272
Li	      2.23812      6.63182     -4.42800        -0.106486     -0.036781      0.096118
Li	     11.44861      4.34675     -2.16271        -0.456314      0.547515     -0.378256
Li	     11.43154      8.75378     -6.57516        -0.204686      0.071897      0.124079
Li	      2.23207      4.36564      2.13483         1.904005     -0.162889      0.085724
Li	      2.53593      8.81483     -2.26351         0.151095     -0.100052     -0.057156
Li	     11.44194      6.52209      0.00981        -0.386292      0.393049     -1.203760
Li	     11.47182     10.93298     -4.40230        -0.120905     -0.086690     -0.063510
Li	      4.57699      2.35849     -2.02720         0.055312      0.322701     -1.214414
Li	      4.62713      6.65033     -6.61594         0.132089      0.092407      0.101814
Li	     13.60014      4.53903     -4.19598        -0.367630      0.201299     -1.023550
Li	     13.55803      8.90671     -8.57405        -0.298212     -0.049180     -0.177566
Li	      4.66854      4.37407     -0.02752         0.080651      0.370040     -0.353527
Li	      4.61370      8.80944     -4.46104         0.165652     -0.038261     -0.061354
Li	     13.59917      6.51893     -2.15133        -0.648308      0.681656     -0.542743
Li	     13.55623     10.94951     -6.59995        -0.392683      0.152789     -0.076163
Li	      6.91409      4.36227     -2.18553         0.128696      0.508758     -0.289130
Li	      6.89363      8.77778     -6.59110         0.020670      0.059854      0.101526
Li	     16.11725      6.76375     -4.62104        -0.306225      0.747019     -0.332567
Li	     16.20874     11.12892     -8.90956        -5.358891      0.649541     -0.487711
Li	      6.91888      6.53859     -0.00478        -0.049992      0.368229     -0.603849
Li	      6.89440     10.95059     -4.41613         0.073110     -0.236958     -0.003083
Li	     16.09770      8.97945     -2.45029        -0.467885      0.593531     -0.831735
Li	     15.93908     13.22627     -6.66834        -0.848522     -0.682774      0.207693
Ni	      0.68936      2.29899     -2.26693       -15.711923     -1.015335      1.408092
Ni	      0.00062      6.70507     -6.57107        14.871293      0.782497      1.526092
Ni	      9.21616      4.38553     -4.37289        -0.004832      0.909638      1.278325
Ni	      9.19691      8.95741     -8.61195         0.109440     -1.599867     -1.149207
Ni	      0.63975      4.42964     -0.17860       -20.642182     -2.760484     -1.010506
Ni	      0.01780      8.78032     -4.50421        14.831811     -1.359451     -0.391493
Ni	      9.21565      6.55987     -2.20241         0.090467     -0.123033     -0.363254
Ni	      9.19741     10.96522     -6.60792         0.182951      0.069985      0.457262
Ni	      2.24907      4.42266     -2.22888         7.169327      1.850758     -1.058219
Ni	      2.29450      8.81231     -6.62325         2.354045      0.539800      1.117242
Ni	     11.55324      6.56775     -4.39474        -0.145634      0.673980      1.279164
Ni	     11.52801     10.99426     -8.79085         0.159210      0.762393      0.800627
Ni	      2.34707      6.58769     -0.04801         1.473383      1.211844     -1.788721
Ni	      2.28132     10.99011     -4.45336         3.765218     -0.530837     -0.101954
Ni	     11.55652      8.75035     -2.21882        -0.123755     -0.402146     -0.933706
Ni	     11.52504     13.16227     -6.62667         0.081183     -1.453710     -0.088149
Ni	      4.56203      4.41763     -4.39411        -0.085396      1.267434      1.313275
Ni	      4.55324      8.99187     -8.65217         0.212989     -1.668015     -0.921751
Ni	     13.87113      6.73599     -6.40825        -0.396853     -1.171544     -1.354223
Ni	     13.83213     10.97247    -10.93682        -0.590867      0.365167      1.092719
Ni	      4.56324      6.59534     -2.22775         0.009453     -0.149844     -0.109105
Ni	      4.55638     11.00195     -6.63904         0.023529     -0.033638      0.531165
Ni	     13.84174      8.74471     -4.39762        -0.279007      0.274197      0.296134
Ni	     13.85127     13.15112     -8.77266        -0.642904     -0.695598      0.189263
Ni	      6.86843      6.62047     -4.43048        -0.210381      0.398255      0.275063
Ni	      6.86815     11.02758     -8.84440        -0.011843     -2.227459     10.141607
Ni	     16.09439      8.73055     -6.58010        -1.010226     -0.166156      1.644583
Ni	     16.07974     13.08953    -10.86741        -1.031854     -0.246621      0.585149
Ni	      6.88118      8.79528     -2.25825        -0.090521     -1.531281     -1.575485
Ni	      6.86941     13.20312     -6.67146        -0.215039     -4.061886      3.375860
Ni	     16.05188     11.04856     -4.51264        -0.944708     -0.837031      0.470850
Ni	     16.10867     15.24706     -8.70019        -1.268357     -0.846195     -0.728277
O	      4.53211      4.52510     -2.32468        -0.760397      0.021861     -0.547874
O	      4.57422      8.92427     -6.73276        -0.326842      0.366929      0.140990
O	     13.92261      6.55782     -4.49089         0.167485      1.239486      0.138838
O	     13.84308     11.07383     -8.75252         0.007177      0.056653     -0.586969
O	      4.57204      6.67866     -0.14230        -0.465974      0.054941     -0.366081
O	      4.59481     11.10633     -4.55776        -0.623956      0.502991      0.010459
O	     13.90454      8.82758     -2.20365        -0.107974      0.719676     -1.045334
O	     13.79480     13.13201     -6.68948         0.277259      0.182028     -0.258292
O	      6.88957      4.54785     -4.52048         0.111256      0.194916      0.484385
O	      6.88342      9.12344     -8.77372        -0.075834     -0.556427     -0.191168
O	     16.15633      6.82565     -6.55046         0.963656     -0.984333     -1.032893
O	     16.13497     10.97140    -10.94837       -12.055001      0.611315     -0.625816
O	      6.89199      6.71577     -2.35904        -0.020127      0.467311     -0.292690
O	      6.88739     11.12713     -6.77356        -0.070614      0.193702     -0.180845
O	     16.17591      8.88504     -4.48567         0.226356      0.598990     -0.603972
O	     16.15303     13.15957     -8.75062       -12.188201      1.741753     -0.535099
O	      4.57117      6.49102     -4.30465         0.803156     -0.608252      0.055684
O	      4.56756      2.42196     -0.25777         0.137121     -0.076914      1.511148
O	     13.96119      8.69530     -6.61774         1.054815      0.596767      0.933003
O	     13.96993      4.72125     -2.42781         1.780794     -1.267683      1.080906
O	      4.64263      8.66748     -2.11960        -0.084766     -0.335379     -0.173978
O	      4.61446      4.59030      1.90590         0.284707     -0.425771      0.990458
O	     13.87631     10.93402     -4.32041         0.919224     -0.655662      0.102358
O	     13.98188      6.79515     -0.35505         1.614851     -0.706774      0.993838
O	      6.88167      2.26599     -1.93249         0.118812      2.501983     -9.079637
O	      6.88892      6.50550     -6.48797        -0.002399      0.455981      0.944362
O	      6.89139      4.27308      0.06678         0.022117      3.117215     -3.259444
O	      6.88591      8.67834     -4.31922        -0.024728     -0.153073      0.535451
O	      0.57960      2.30640     -0.16450        -3.811150      1.553468     -1.591582
O	      0.00672      6.61848     -4.41883         4.012422     -0.359778      0.716857
O	      9.20585      4.49645     -2.30999        -0.268635      0.597772     -0.595388
O	      9.18995      8.89767     -6.71535        -0.086600      0.480533      0.441363
O	      0.58109      4.52463      1.84081        -3.355247      1.158313     -0.123568
O	      9.20433      6.67185     -0.13864        -0.444407      0.264623     -0.714616
O	      9.19429     11.07501     -4.54189         0.064910      0.587302     -0.292988
O	      2.03629      4.54709     -0.07074        20.722670      2.095146      0.915053
O	      2.20075      8.93539     -4.45313        -0.408241      0.344320     -0.233345
O	     11.49778      6.68255     -2.32531        -0.204108      0.395368     -0.822390
O	     11.44053     11.07156     -6.72593        -0.147584      0.636990     -0.231993
O	      2.15494      2.43073     -2.19762        13.722297      0.711778     -0.037543
O	      2.17950      6.81570     -6.57154        -0.320209     -0.595324     -0.578137
O	     11.48148      4.49518     -4.48436        -0.267422      0.748231      0.295244
O	     11.45973      9.08329     -8.73702        -0.079952     -0.472254     -0.542932
O	      0.58638      4.57878     -2.28304        -7.081582     -0.277296      0.282298
O	      0.50378      9.03611     -6.83150        -5.286539     -0.698271      1.357507
O	      9.22325      6.46352     -4.27880        -0.280375     -0.543009      0.286092
O	      9.19778     10.86938     -8.68859         0.164712      0.285651      0.732074
O	     17.28408     12.16396     -5.55687        -3.380092     -2.319862     -2.046376
O	      0.55192     11.14138     -4.57352        -6.202220     -0.761782      0.099534
O	      9.22153      8.63839     -2.10909         0.332291     -0.583089     -0.538343
O	      9.20130     13.04739     -6.51264         0.020281     -0.836069      0.536031
O	      2.27867      4.44112     -4.22860         0.788256     -0.620302     -0.413865
O	      2.32753      8.85987     -8.60189         1.662291     -1.767181      0.037713
O	     11.57460      6.63680     -6.29347         0.365593     -0.601543     -0.809777
O	     11.56249     10.90174    -10.85916         0.765419      0.097700      1.655394
O	      2.27728      6.59473     -2.07669         0.539516     -0.430891      0.427494
O	      2.33698     10.94668     -6.50363         1.406440     -0.795020      0.866353
O	     11.58842      8.63626     -4.29817         0.522531     -0.183190      0.546132
O	     11.54422     13.07483     -8.69211         0.515349     -1.049103      0.583787
