# total energy = -531.82781143 eV
 
CRYSTAL
PRIMVEC
0.000914 4.223067 4.215870 
17.833266 4.286086 -4.275079 
-0.002131 8.559373 -8.544387 
PRIMCOORD
123 1
Li	      9.33054      2.26840     -2.26008         0.248705      1.457402     -0.313654
Li	      9.32220      6.97455     -6.54317        -0.020416     -0.217227     -0.218401
Li	      0.22149      0.45626     -0.41328         1.994514      0.366294      0.306899
Li	      0.16807      4.66421     -4.41501         3.090879      3.703175      3.708774
Li	      9.32975      4.48437     -0.05029         0.193926      0.405034     -0.527021
Li	      9.32278      8.98242     -4.53913        -0.069800      0.060647      0.163355
Li	      0.21935      2.66853      1.72585         2.062861     -0.196298      0.095574
Li	      0.15594      6.67748     -2.39874         1.754392      0.208883     -0.879114
Li	      2.26326      2.20704     -0.01318         4.262701      0.566104      0.789885
Li	      2.28136      6.75997     -4.51356         0.149376     -0.031622      0.121480
Li	     11.66983      4.43074     -2.20450        -0.486100      0.678361     -0.541660
Li	     11.65244      8.92293     -6.70222        -0.212773      0.073282      0.108923
Li	      2.27519      4.45000      2.17608         3.788627     -0.591630      0.705949
Li	      2.58494      8.98517     -2.30725         0.129871     -0.140143     -0.102944
Li	     11.66303      6.64812      0.01000        -0.573778      0.504441     -1.953418
Li	     11.69349     11.14424     -4.48737        -0.161242     -0.104342     -0.035623
Li	      4.66545      2.44467     -2.02583         0.103838      0.341330     -2.011566
Li	      4.71655      6.77884     -6.74377         0.179439      0.113562      0.202190
Li	     13.86295      4.66735     -4.23653        -0.587794      0.266789     -1.632145
Li	     13.82002      9.11942     -8.69919        -0.365814     -0.061024     -0.187117
Li	      4.75874      4.45859     -0.02805         0.231469      0.506582     -0.434239
Li	      4.70285      8.97967     -4.54724         0.127742     -0.162192     -0.036727
Li	     13.86195      6.64489     -2.19291        -0.765865      0.867648     -0.725560
Li	     13.81818     11.16109     -6.72749        -0.416862      0.165512     -0.070960
Li	      7.04770      4.44656     -2.22776         0.134096      0.662097     -0.452628
Li	      7.02683      8.94740     -6.71845         0.034085      0.080456      0.083977
Li	     16.42869      6.89444     -4.71033        -0.455111      0.824579     -0.412917
Li	     16.52194     11.34396     -9.08173        -9.582482      1.681044     -1.400499
Li	      7.05257      6.66493     -0.00487         0.014406      0.588436     -0.785831
Li	      7.02764     11.16220     -4.50147         0.134492     -0.211959      0.059685
Li	     16.40876      9.15297     -2.49764        -0.682231      0.716773     -0.967029
Li	     16.24707     13.48184     -6.79719        -0.849413     -0.868895      0.307858
Ni	      0.87415      2.38463     -2.35185       -30.921543     -3.090305     -1.065296
Ni	      0.00063      6.83463     -6.69805        25.900404     -0.499872      3.752278
Ni	      9.39426      4.47028     -4.45739         0.202963      1.700792      1.408613
Ni	      9.37464      9.17110     -8.73782         0.202868     -1.837008     -1.312811
Ni	      0.82359      4.55644     -0.22316       -42.292121     -3.584064     -4.103154
Ni	      0.01813      8.94999     -4.59124        25.602509     -3.346651      0.929562
Ni	      9.39373      6.68664     -2.24497         0.080776     -0.110878     -0.466104
Ni	      9.37515     11.17710     -6.73560         0.279055     -0.079498      0.625461
Ni	      2.29254      4.50812     -2.27195        12.633274      1.827429     -1.614774
Ni	      2.33884      8.98259     -6.75123         4.322097      0.343569      1.577450
Ni	     11.77650      6.69466     -4.47966        -0.450332      0.586669      1.342846
Ni	     11.75077     11.20670     -8.96071         0.159413      0.822440      0.948564
Ni	      2.39243      6.71499     -0.04895         1.825867      1.937740     -2.590928
Ni	      2.32539     11.20247     -4.53941         7.150586     -1.131412      0.191887
Ni	     11.77983      8.91944     -2.26170        -0.051568     -0.520691     -1.177269
Ni	     11.74773     13.41661     -6.75472         0.059551     -1.675621     -0.025923
Ni	      4.65018      4.50299     -4.47902         0.116216      1.799738      1.555552
Ni	      4.64122      9.20622     -8.77882         0.260029     -1.972327     -1.068615
Ni	     14.13918      6.90675     -6.49154        -0.495882     -1.338004     -1.507596
Ni	     14.09941     11.18449    -11.14815        -0.902654      0.347318      1.260720
Ni	      4.65141      6.72279     -2.27080         0.050648     -0.223552     -0.476761
Ni	      4.64442     11.21454     -6.76732        -0.089875     -0.016699      0.644103
Ni	     14.10921      8.91369     -4.48260        -0.446443      0.315469      0.366979
Ni	     14.11892     13.40525     -8.94217        -0.959703     -0.860529      0.273334
Ni	      7.00115      6.74839     -4.51610        -0.127316      0.220418      0.514080
Ni	      7.00087     11.24067     -9.01530        -0.038213     -1.424592     14.031081
Ni	     16.40538      8.89925     -6.70724        -1.576325     -0.468588      1.903422
Ni	     16.39045     13.34246    -11.07740        -0.948252     -0.124160      0.472826
Ni	      7.01415      8.96524     -2.30189        -0.118069     -1.704495     -1.498952
Ni	      7.00217     13.45824     -6.80038        -0.324233     -3.344045      3.146417
Ni	     16.36205     11.26206     -4.59985        -1.190240     -0.951551      0.571515
Ni	     16.41994     15.54168     -8.86831        -1.518997     -0.570438     -0.754500
O	      4.61968      4.61254     -2.36960        -0.993785      0.203193     -0.424560
O	      4.66261      9.09672     -6.86287        -0.634390      0.443581      0.284655
O	     14.19165      6.68455     -4.57768         0.228814      1.492688      0.056774
O	     14.11058     11.28782     -8.92165         0.106953      0.274662     -0.615553
O	      4.66039      6.80772     -0.14506        -0.768508     -0.148201     -0.609613
O	      4.68358     11.32094     -4.64583        -0.949005      0.429926     -0.046303
O	     14.17322      8.99817     -2.24624         0.202669      0.875759     -1.240889
O	     14.06137     13.38577     -6.81873         0.454663      0.228706     -0.510010
O	      7.02271      4.63573     -4.60783         0.023975      0.592222      0.458912
O	      7.01644      9.34035     -8.90272        -0.124509     -0.625804      0.327154
O	     16.46852      6.99814     -6.63649         0.929120     -0.933400     -1.243403
O	     16.44675     11.18340    -11.15993       -22.520040      1.421717     -2.461850
O	      7.02516      6.84554     -2.40463         0.014671      0.566866     -0.386925
O	      7.02047     11.34214     -6.90445        -0.020984     -0.442187     -0.053970
O	     16.48848      9.05673     -4.57236         0.653306      0.628436     -0.685047
O	     16.46516     13.41386     -8.91971       -22.895876      3.329416     -1.375279
O	      4.65950      6.61645     -4.38783         0.449932     -0.622091      0.375803
O	      4.65580      2.55107     -0.34491         0.142112      0.115909      2.418755
O	     14.23097      8.86333     -6.74562         1.281234      0.733453      1.103644
O	     14.23986      4.89479     -2.55688         2.111567     -1.472187      1.920427
O	      4.73235      8.83498     -2.16057        -0.089485     -0.576278     -0.419961
O	      4.70361      4.76131      1.86057         0.149627     -0.669272      1.039172
O	     14.14445     11.14530     -4.40390         1.114224     -0.822184      0.088174
O	     14.25204      7.00876     -0.44407         1.924746     -1.091488      1.268448
O	      7.01465      2.35037     -1.92929         0.195077      1.850627    -13.127613
O	      7.02203      6.63121     -6.61334         0.021156      0.456053      0.875940
O	      7.02455      4.35564      0.06808         0.011528      2.645920     -3.295001
O	      7.01898      8.84604     -4.40269        -0.004851     -0.414038      0.596925
O	      0.76228      2.39218     -0.20880        -6.205145      2.278688     -1.761412
O	      0.00687      6.74638     -4.50421         7.912717     -1.691760      1.419878
O	      9.38373      4.58333     -2.35463        -0.313612      0.928925     -0.882104
O	      9.36752      9.06960     -6.84512        -0.129995      0.783412      0.464007
O	      0.76380      4.65328      1.83527        -5.218568      1.471938     -1.220172
O	      9.38218      6.80078     -0.14132        -0.480719     -0.221215     -1.132514
O	      9.37196     11.28903     -4.62966         0.026237      0.676568     -0.343282
O	      2.07565      4.63496     -0.07211        41.512273      2.650058      4.397664
O	      2.24326      9.10805     -4.53917        -0.750754      0.254732     -0.285945
O	     11.71995      6.81167     -2.37025        -0.306427      0.619692     -1.028954
O	     11.66159     11.28550     -6.85589        -0.116424      0.551024     -0.291256
O	      2.19658      2.51831     -2.19956        29.187278      2.430923      2.443491
O	      2.22163      6.98801     -6.65799        -0.723455     -0.442522     -0.536297
O	     11.70335      4.58205     -4.57102        -0.298101      1.186237      0.255089
O	     11.68118      9.29941     -8.86531        -0.088980     -0.640847     -0.556470
O	      0.76919      4.70847     -2.36827       -12.149610      0.877917      0.343519
O	      0.68500      9.25193     -7.00461        -7.278382      0.111942      0.620344
O	      9.40147      6.58842     -4.36148        -0.047335     -0.543781      0.568634
O	      9.37551     11.07941     -8.85648         0.130990      0.173190      0.927340
O	     17.61808     12.39900     -5.66425        -3.947644     -3.437853     -3.452013
O	      0.73406     11.39789     -4.70300        -9.288873     -0.191450     -0.152628
O	      9.39973      8.80531     -2.14984        -0.004502     -0.951848     -0.337543
O	      9.37911     13.29950     -6.63849         0.006268     -1.460750      0.676781
O	      2.32271      4.56754     -4.26977         0.696444     -1.016428     -0.011737
O	      2.37251      9.07168     -8.72757         2.011123     -2.264928      0.047086
O	     11.79828      6.80566     -6.37455         0.448186     -0.775752     -0.621605
O	     11.78591     11.11240    -11.06899         1.002035      0.354766      2.516985
O	      2.32128      6.72217     -2.11682         0.641891     -0.825116      0.869118
O	      2.38213     11.15820     -6.62930         1.627647     -0.982120      0.623675
O	     11.81233      8.80314     -4.38123         0.643660     -0.404917      0.732432
O	     11.76729     13.32748     -8.86007         0.687612     -1.250427      0.569581
