# total energy = -590.88954832 eV
 
CRYSTAL
PRIMVEC
0.000871 4.021969 4.015114 
16.984063 4.081986 -4.071504 
-0.002029 8.151784 -8.137511 
PRIMCOORD
123 1
Li	      8.46307      2.05751     -2.04995        -0.003646      0.024605     -0.020954
Li	      8.45635     10.15657     -2.11093         0.001903      0.012640     -0.010161
Li	      0.19896      8.17745     -8.12488         0.033079      0.040856     -0.019829
Li	      0.15246      4.23058     -4.00455         0.046940     -0.001497      0.002665
Li	      8.46235      4.06746     -0.04561         0.000733      0.024273     -0.023197
Li	      8.45605      8.14733     -4.11714        -0.000358      0.010599     -0.013017
Li	      0.19703     10.18403     -6.18461         0.044727     -0.007336     -0.022693
Li	      0.14144      6.05668     -2.17573         0.053272      0.016441      0.002699
Li	      2.05285      2.00185     -0.01196         0.026852     -0.014985      0.019561
Li	      2.06927      6.13149     -4.09393         0.042267     -0.000596      0.002718
Li	     10.58488      4.01882     -1.99955        -0.045754      0.007661     -0.002554
Li	     10.56910      8.09335     -6.07910        -0.035619      0.001696      0.000733
Li	      2.06366      4.03628      1.97377         0.025837     -0.029667      0.026332
Li	      2.34461      8.14982     -2.09274        -0.011661     -0.003213     -0.009612
Li	     10.57872      6.03004      0.00907        -0.038466      0.003456     -0.006742
Li	     10.60634     10.10816     -4.07018        -0.040586      0.002964      0.000423
Li	      4.23254      6.04784      1.98642        -0.002503     -0.003038      0.001962
Li	      4.27805      6.14861     -6.11681        -0.001555     -0.002626      0.009514
Li	     12.57494      8.06387     -0.01874        -0.044136     -0.024838      0.019963
Li	     12.53600     12.10204     -4.06651        -0.052687      0.033165     -0.016696
Li	      4.31633      4.04408     -0.02544        -0.010197      0.005594     -0.002170
Li	      4.26563      8.14483     -4.12448        -0.004865     -0.013422      0.005807
Li	     12.57320      6.02712     -1.98903        -0.042296      0.025445     -0.022173
Li	     12.53350     10.12344     -6.10203        -0.047285     -0.037919      0.023584
Li	      6.39248      4.03316     -2.02064        -0.004349     -0.018510      0.014982
Li	      6.37356      8.11556     -6.09384        -0.003212     -0.021697      0.025823
Li	     14.90130      6.25347     -4.27241         0.020849     -0.014185      0.023569
Li	     14.98589     10.28931     -8.23739        -0.011785     -0.023508      0.026099
Li	      6.39689      6.04529     -0.00442        -0.009621     -0.015125      0.017181
Li	      6.37427     10.12444     -4.08296        -0.002325     -0.026525      0.023874
Li	     14.88324      8.30201     -2.26543         0.023294     -0.016744      0.005387
Li	     14.73657     12.22843     -6.16525         0.022932     -0.007359     -0.000071
Ni	     16.96819      6.05053     -6.01082         0.085298     -0.020426     -0.089404
Ni	      0.00057      6.19921     -6.07532         0.081033     -0.202618      0.015824
Ni	      8.52086      4.05467     -4.04298        -0.043097     -0.039748      0.046613
Ni	      8.50390     12.14891     -4.10155        -0.023294     -0.040068      0.055148
Ni	     16.92231      8.02043     -4.08003         0.097809      0.081369     -0.003496
Ni	      0.01644      8.11790     -4.16440         0.074905     -0.016458      0.219047
Ni	      8.52038      6.06497     -2.03625        -0.041109     -0.040902      0.045436
Ni	      8.50352     10.13796     -6.10939        -0.045847     -0.050495      0.066078
Ni	      2.07940      4.08900     -2.06073         0.023483      0.015827      0.005883
Ni	      2.12141      8.14747     -6.12356        -0.003105     -0.021654      0.022800
Ni	     10.68163      6.07226     -4.06319        -0.093060      0.003794     -0.005577
Ni	     10.65829     10.16481     -8.12763        -0.103682     -0.008215     -0.008572
Ni	      2.16999      6.09069     -0.04439        -0.066568     -0.022519     -0.017226
Ni	      2.10920     10.16097     -4.11738         0.035429      0.003535     -0.020750
Ni	     10.68465      8.09019     -2.05142        -0.095651      0.012071     -0.014674
Ni	     10.65554     12.16925     -6.12673        -0.117265     -0.003668      0.003785
Ni	      4.21786      4.08434     -4.06260         0.013497     -0.020397      0.013811
Ni	      4.21056     12.18077     -4.13874         0.009578     -0.002090      0.017353
Ni	     12.82548     10.09508     -2.06410        -0.067350      0.038815     -0.013958
Ni	     12.78858     10.14466    -10.11170        -0.052973      0.018205     -0.010110
Ni	      4.21897      6.09776     -2.05968         0.018562     -0.021809      0.001495
Ni	      4.21264     10.17193     -6.13817         0.013628     -0.011434     -0.002380
Ni	     12.79747      8.08498     -4.06585         0.001208      0.023249     -0.024509
Ni	     12.80627     12.15895     -8.11081        -0.073964      0.053790     -0.025188
Ni	      6.35024      6.12099     -4.09623         0.040258      0.026257     -0.032061
Ni	      6.34999     10.19562     -8.17714         0.021701      0.051344     -0.037849
Ni	     14.88017      8.07189     -6.08367         0.071991      0.250378     -0.202245
Ni	     14.86662     12.10201    -10.04753         0.056859      0.240193     -0.243752
Ni	      6.36204      8.13174     -2.08788         0.051078      0.013106     -0.020129
Ni	      6.35116     12.20702     -6.16814         0.032073      0.042112     -0.047780
Ni	     14.84087     10.21501     -4.17220        -0.106809     -0.055529      0.002184
Ni	     14.89337     14.09677     -8.04382         0.008107      0.275419     -0.240887
O	      4.19019      4.18371     -2.14930         0.075810     -0.123702      0.130160
O	      4.22911      8.25098     -6.22481         0.098847     -0.123397      0.115880
O	     12.87225      6.06308     -4.15209         0.144348     -0.012105      0.185679
O	     12.79870     10.23838     -8.09219         0.154304     -0.208872     -0.003517
O	      4.22712      6.17480     -0.13157         0.082436     -0.121441      0.110226
O	      4.24814     10.26842     -4.21390         0.076480     -0.128191      0.128044
O	     12.85552      8.16159     -2.03740         0.113595     -0.217318      0.016813
O	     12.75407     12.14129     -6.18479         0.158447      0.016704      0.208950
O	      6.36979      4.20474     -4.17943         0.009523     -0.125224      0.119880
O	      6.36495     12.30242     -4.25111        -0.003758     -0.133184      0.131110
O	     14.93828     10.17797     -2.19558        -0.048216     -0.168170      0.096114
O	     14.91768     10.14367    -10.12238        -0.062457     -0.165663      0.149027
O	      6.37204      6.20911     -2.18108         0.001094     -0.120935      0.135861
O	      6.36778     10.28766     -6.26254        -0.000359     -0.143821      0.129906
O	     14.95554      8.21472     -4.14726        -0.189146     -0.078444      0.122104
O	     14.93439     12.16677     -8.09044         0.005629     -0.156411      0.168023
O	      4.22629      6.00132     -3.97989        -0.051946      0.128183     -0.117069
O	      4.22101     10.07749     -8.06285        -0.050841      0.117620     -0.125082
O	     12.90790      8.03930     -6.11848        -0.114475      0.187695     -0.024479
O	     12.91405     12.20332    -10.06918        -0.130980      0.005396     -0.197580
O	      4.29238      8.01358     -1.95969        -0.090673      0.106841     -0.129803
O	      4.26438     12.08225     -6.06242        -0.065721      0.137838     -0.118367
O	     12.82943     10.10912     -3.99446        -0.099762      0.000379     -0.183555
O	     12.92508     14.12075     -8.15280        -0.110273      0.165812     -0.015947
O	      6.36332      5.96231      2.07400         0.000380      0.132362     -0.130092
O	      6.36920      6.01470     -5.99849         0.013662      0.148570     -0.141330
O	      6.37148      3.95070      0.06174        -0.004227      0.114690     -0.125303
O	      6.36641      8.02362     -3.99337         0.009966      0.143855     -0.145737
O	     16.86672      6.05738     -4.06700        -0.087975     -0.173995      0.169417
O	      0.00622      6.11916     -4.08545        -0.069720     -0.084988      0.080895
O	      8.51132      4.15722     -2.13571         0.005181     -0.135193      0.130329
O	      8.49661      8.22639     -6.20872         0.002055     -0.135804      0.124413
O	     16.86808      8.10826     -2.21298        -0.037950     -0.071908      0.292905
O	      8.50992      6.16850     -0.12818        -0.001988     -0.135309      0.136151
O	      8.50065     10.23948     -4.19923         0.003006     -0.132288      0.129544
O	      1.88266      4.20404     -0.06540         0.107168     -0.130248      0.154473
O	      2.03472      8.26128     -4.11717         0.013727     -0.155605      0.229840
O	     10.63034      6.17839     -2.14988         0.114434     -0.199524      0.176456
O	     10.57740     10.23629     -6.21850         0.136138     -0.156734      0.180442
O	      1.99319      6.11463      1.82886         0.039140     -0.175693      0.186198
O	      2.01591     10.16878     -2.21507         0.019990     -0.229160      0.156758
O	     10.61529      4.15605     -4.14605         0.129176     -0.171917      0.187439
O	     10.59600     12.26528     -4.21718         0.124697     -0.160696      0.189273
O	     16.87299      8.15833     -6.02572         0.006049      0.105123     -0.194718
O	     16.79661     12.27938    -10.23101         0.028839      0.101860     -0.102530
O	      8.52741      5.97589     -3.95599         0.002404      0.125786     -0.128037
O	      8.50387     10.04935     -8.03309         0.011106      0.119244     -0.127708
O	     15.98012     11.24626     -5.13764         0.235155      0.196857     -0.220585
O	     16.84111     14.22583     -8.14339         0.059126      0.086354     -0.124338
O	      8.52582      7.98668     -1.94997         0.007792      0.121855     -0.121649
O	      8.50713     12.06305     -6.02131         0.006254      0.120046     -0.117951
O	      2.10761      7.97335     -0.04890        -0.117263      0.166122     -0.142651
O	      2.15278     12.05873     -4.09225        -0.127613      0.130088     -0.228189
O	     10.70221     10.00338     -1.95798        -0.020587      0.197378     -0.167533
O	     10.69016     10.07927    -10.03989         0.008750      0.170658     -0.191100
O	      2.10547      6.09720     -1.92001        -0.114861      0.133408     -0.175954
O	      2.16067     10.12082     -6.01297        -0.126676      0.251580     -0.118175
O	     10.71413      7.98471     -3.97390         0.008646      0.178968     -0.183654
O	     10.67329     12.08842     -8.03635        -0.018392      0.166636     -0.207591
