# total energy = -91.95313708 eV
 
CRYSTAL
PRIMVEC
4.131237 -0.000028 -0.000030 
-0.000002 4.089281 -4.090269 
0.000006 6.254692 2.166003 
PRIMCOORD
16 1
Li	      2.06695      2.15257      0.10482         0.000546     -0.017017     -0.003614
Li	      0.00137      4.07515      0.13513        -0.000966     -0.017287      0.019751
Li	      0.00120      6.26833     -2.05658        -0.000837      0.020864     -0.016274
Li	      2.06696      8.19098     -2.02593         0.000054      0.017359      0.004558
Mn	      0.00131      4.08936     -4.08817         0.000407     -0.012933     -0.019259
Mn	      0.00131      2.04485     -2.04318         0.000452     -0.017924     -0.013095
Ni	      2.06691      6.17263      0.04235        -0.000491      0.104966      0.099735
Ni	      2.06692      4.17091     -1.96353         0.000048     -0.103396     -0.099326
O	      2.06693      4.20479      0.00398        -0.000565     -0.076577      0.093026
O	      0.00130      6.34787      0.21764        -0.000346     -0.041358     -0.049324
O	      2.06691      6.13882     -1.92506         0.000141      0.073460     -0.096626
O	      0.00125      8.40329     -1.81693         0.001028     -0.027272     -0.036949
O	      2.06689      2.04441     -2.04370        -0.000253      0.001670      0.001195
O	      0.00131      3.99531     -2.13900        -0.000130      0.053871      0.064016
O	      2.06691      4.08897     -4.08874        -0.000183      0.001989      0.000465
O	      0.00132      1.93982     -0.10447         0.001095      0.039584      0.051721
