# total energy = -588.75606434 eV
 
CRYSTAL
PRIMVEC
0.001063 4.014880 4.019100 
17.181223 4.105228 -4.105315 
0.045245 8.102584 -8.110425 
PRIMCOORD
123 1
Li	      8.58727      6.09566      1.93182        -0.007467      0.016971     -0.008919
Li	      8.56826     10.13266     -2.10445        -0.005105      0.014712     -0.014185
Li	     17.14789      4.13797     -4.11837        -0.008117      0.037492     -0.037704
Li	      0.27017      3.83752     -3.83380        -0.004882      0.037359     -0.042041
Li	      8.57640      4.09622     -0.07260        -0.011161      0.010229     -0.017611
Li	      8.56839      8.12573     -4.11207         0.005036      0.012403     -0.014497
Li	     17.07064      6.20934     -2.18254         0.010527      0.019073     -0.011284
Li	      0.31399      5.94008     -1.93001        -0.001197      0.038609     -0.029052
Li	      2.05669      2.08839     -0.06201         0.009559      0.005690     -0.000823
Li	      2.47814      6.13429     -4.14749        -0.002926      0.016134     -0.006101
Li	     10.73580      4.04828     -2.04043        -0.007080     -0.006280      0.003199
Li	     10.59337      8.10033     -6.10689         0.015543     -0.013127      0.011769
Li	      2.04219      4.03404      1.97682        -0.004074      0.002847     -0.004855
Li	      2.48088      8.16623     -2.11660        -0.010151      0.001763     -0.019966
Li	     10.69191      6.04647     -0.02069        -0.034386      0.007868     -0.001078
Li	     10.57103     10.11913     -4.09078        -0.007208     -0.023144      0.019563
Li	      4.36659      2.06993     -2.06396         0.018443      0.020124     -0.023789
Li	      4.46700     10.13671     -2.10891        -0.019007     -0.004970      0.006820
Li	     12.97561      8.10693     -0.07877         0.014877     -0.029210      0.027478
Li	     12.62214     12.07719     -4.06812        -0.004031      0.017217     -0.014509
Li	      4.31754      4.05984     -0.05601        -0.021263      0.025712     -0.021915
Li	      4.43605      8.13493     -4.11520        -0.025222     -0.008189      0.009279
Li	     12.98648      6.06360     -2.05185         0.011958     -0.020221      0.014319
Li	     12.61010     10.09380     -6.06618         0.015436      0.008237     -0.017812
Li	      6.49059      4.03603     -2.03242        -0.010941     -0.011442      0.014492
Li	      6.50320      8.09694     -6.09364        -0.007306     -0.024206      0.025827
Li	     15.02833      5.89711     -4.03514        -0.001080     -0.037710      0.049655
Li	     14.78458     10.30956     -8.29717         0.000115     -0.032696      0.044371
Li	      6.47261      6.04923     -0.01977        -0.013502     -0.012367      0.009815
Li	      6.49797     10.10463     -4.08077        -0.016074     -0.027250      0.022094
Li	     15.03028      8.05216     -1.87477         0.007704     -0.058617      0.030637
Li	     14.79871     12.31411     -6.29674        -0.004786     -0.043869      0.042252
Ni	     17.09651      6.15413     -6.13616         0.055263     -0.008937      0.000951
Ni	      0.08523     10.19493     -2.16900         0.120208     -0.243190      0.225315
Ni	      8.65401      4.05785     -4.05711        -0.032449     -0.038058      0.051663
Ni	      8.60347     12.11577     -4.09337        -0.045929     -0.033515      0.049140
Ni	      0.01490      4.11210     -0.10092        -0.077766      0.062131     -0.036714
Ni	      0.11458      8.19986     -4.18126         0.119934     -0.231525      0.248967
Ni	      8.64870      6.06604     -2.04984        -0.028911     -0.044045      0.045414
Ni	      8.60362     10.11236     -6.09746        -0.048697     -0.059953      0.038277
Ni	      2.21903      4.10849     -2.10969        -0.028671      0.046647     -0.012921
Ni	      2.16500      8.14032     -6.13670         0.033114     -0.004887      0.022638
Ni	     10.81222      6.08607     -4.09012        -0.040375     -0.000279      0.015559
Ni	     10.73823     10.12631     -8.12204         0.022501      0.012582     -0.018311
Ni	      2.25643      6.10817     -0.07576        -0.027552      0.008521     -0.027908
Ni	      2.16474     10.14003     -4.11549         0.023232     -0.070438      0.048042
Ni	     10.81416      8.10259     -2.07120        -0.043808     -0.002599      0.005325
Ni	     10.74407     12.12946     -6.11272         0.020090      0.011565     -0.010040
Ni	      4.34907      4.09439     -4.09113        -0.024528     -0.007110      0.001801
Ni	      4.28166     12.14895     -4.12713         0.019545      0.021029     -0.024381
Ni	     12.95892     10.12321     -2.09752        -0.050154      0.063926     -0.059299
Ni	     12.86245     14.12147     -6.09727         0.049887     -0.000623      0.011682
Ni	      4.34786      6.09559     -2.08449        -0.007413      0.009333     -0.009073
Ni	      4.29286     10.14484     -6.12875         0.025632      0.009763      0.002907
Ni	     12.81818      8.12928     -4.11682         0.118441     -0.017051      0.006329
Ni	     12.87612     12.11006     -8.09419         0.064938     -0.014782      0.019844
Ni	      6.47954      6.11136     -4.10909         0.010788      0.052258     -0.023710
Ni	      6.44990     10.16477     -8.16316         0.009012      0.058105     -0.063973
Ni	     14.98053      8.10425     -5.98496        -0.084238      0.117879     -0.000632
Ni	     15.14124     12.15186    -10.12970        -0.056502      0.003276     -0.027953
Ni	      6.48235      8.12220     -2.09444        -0.006576      0.036151     -0.039682
Ni	      6.45004     12.17227     -6.15499         0.004608      0.038827     -0.058722
Ni	     15.00864      9.99379     -4.08715        -0.084389      0.000128     -0.123367
Ni	     15.14982     14.14122     -8.14479        -0.035248      0.013587      0.012617
O	      4.27277      4.11892     -2.19284         0.066753     -0.182593      0.118075
O	      4.28298      8.22481     -6.22305         0.042662     -0.131148      0.114169
O	     12.90796      6.15042     -4.22216         0.095615     -0.110104      0.191373
O	     12.90425     10.18898     -8.13249         0.090590     -0.185117      0.194248
O	      4.29185      6.21016     -0.10291         0.076122     -0.106525      0.174559
O	      4.30191     10.23084     -4.20266         0.055796     -0.127255      0.135939
O	     12.90940      8.23024     -2.13839         0.081198     -0.192475      0.113932
O	     12.93031     12.13724     -6.17618         0.063071     -0.205945      0.192671
O	      6.49525      4.19453     -4.19306         0.029882     -0.108153      0.103287
O	      6.44598      8.25195     -8.25577         0.021234     -0.123811      0.124814
O	     15.05608     10.13736     -2.10765         0.056698     -0.083962      0.089062
O	     15.37899     10.00133     -9.99897        -0.135602     -0.106478      0.092791
O	      6.48223      6.20107     -2.18758         0.066054     -0.105606      0.109296
O	      6.43984     10.25149     -6.24903         0.037168     -0.112579      0.123694
O	     15.40369     12.01125     -7.99689        -0.142297     -0.094247      0.093145
O	      4.40434      5.99932     -4.06636        -0.088730      0.115288     -0.152264
O	      4.31620     10.04439     -8.04573        -0.037932      0.120105     -0.148758
O	     13.08517      8.07215     -6.11237        -0.188898      0.099553     -0.132976
O	     13.05849     12.03816     -9.96661         0.001964      0.216117     -0.204580
O	      4.39856      8.07399     -1.97291        -0.069476      0.167766     -0.122609
O	      4.34540     12.05754     -6.04496        -0.041147      0.156451     -0.116649
O	     13.11602     10.11474     -4.05711        -0.190455      0.143537     -0.114282
O	     13.13017     13.98430     -8.02099         0.011998      0.197614     -0.228087
O	      6.44120      1.95525     -1.95199         0.021926      0.135288     -0.129464
O	      6.52431      6.01194     -6.01246         0.011776      0.131870     -0.141161
O	     15.01799      7.97667      0.05416         0.042618      0.142353     -0.130697
O	      6.42263      3.96497      0.04949         0.033114      0.118668     -0.116169
O	      6.49127      8.01493     -4.00115         0.016737      0.121519     -0.116966
O	     14.98890      6.01572     -1.99880         0.051652      0.154644     -0.133092
O	     17.09036      6.36143     -4.18321        -0.017777     -0.247617      0.110353
O	      8.63377      4.16142     -2.14971        -0.001274     -0.116665      0.121278
O	      8.58051      8.20694     -6.20598        -0.006339     -0.125165      0.108140
O	     17.12809      8.21754     -2.35148        -0.011617     -0.092740      0.230931
O	      8.61345      6.17451     -0.15035         0.004345     -0.133606      0.117102
O	      8.54257     10.21195     -4.19283         0.021792     -0.107979      0.124027
O	      2.06296      4.15240     -0.23544         0.044247     -0.186979      0.202586
O	      2.07778      8.19412     -4.08889         0.100393     -0.132887      0.160306
O	     10.79491      6.19579     -2.17439         0.043381     -0.152986      0.144598
O	     10.68576     10.21981     -6.12717         0.067297     -0.106342      0.128326
O	      1.94423      2.23333     -2.14786        -0.031020     -0.208755      0.164725
O	      2.05013     10.13028     -2.17479         0.103599     -0.126951      0.132458
O	     10.77374      4.17005     -4.16732         0.055548     -0.152313      0.130611
O	     10.69351     12.14671     -4.20375         0.078835     -0.125347      0.113240
O	     16.85460      8.30579     -6.19211         0.216399      0.016804     -0.211366
O	      0.06230      8.10853     -6.10115        -0.028558      0.207302     -0.200605
O	      8.65366      5.97371     -3.96435         0.007452      0.105503     -0.120201
O	      8.61262     10.02086     -8.01738        -0.030373      0.107351     -0.119515
O	     16.88747     10.20401     -4.28343         0.207991      0.207096     -0.017348
O	     17.20783     14.23372     -8.20922        -0.045512      0.181410     -0.186268
O	      8.65123      7.98215     -1.95748         0.004911      0.114164     -0.112527
O	      8.59470     12.03044     -6.01399        -0.000023      0.116218     -0.106331
O	      2.11105      4.10771     -4.02700        -0.070548      0.142950     -0.159131
O	      2.20483     12.03580     -4.10578        -0.106265      0.202018     -0.189430
O	     10.81534     10.02017     -1.99465        -0.052168      0.136962     -0.148269
O	     10.81094     14.03129     -6.09447        -0.096783      0.100248     -0.109080
O	      2.17364      6.03083     -2.09436        -0.094154      0.156770     -0.142075
O	      2.24462     10.10762     -6.00171        -0.126371      0.165069     -0.205270
O	     10.78178      8.01195     -4.00518        -0.082510      0.151527     -0.139584
O	     10.81856     12.11502     -8.01546        -0.091204      0.132310     -0.120194
