# total energy = -589.93023162 eV
 
CRYSTAL
PRIMVEC
-0.000957 4.020624 4.022629 
17.237017 4.081566 -4.087769 
0.037718 8.079662 -8.083224 
PRIMCOORD
123 1
Li	      8.59600      2.07760     -2.07759         0.009749      0.011655     -0.007957
Li	      8.59149      6.09425     -6.09708         0.009345      0.014186     -0.015639
Li	     17.17987      4.17855     -3.97291         0.000776      0.046656     -0.027710
Li	      0.32108      7.92618      0.08842        -0.018347      0.042906     -0.036774
Li	      8.58731      4.08712     -0.06866         0.008032      0.009533     -0.009830
Li	      8.59582      8.10449     -4.08968         0.007668      0.016912     -0.015056
Li	     17.19403      5.98145     -2.16892         0.003034      0.028438     -0.043613
Li	      0.31544      5.94479     -1.89969        -0.013599      0.034403     -0.043880
Li	      2.01742      2.01774     -0.01214         0.011799     -0.004828      0.003445
Li	      2.46053      6.13017     -4.12174        -0.013017      0.020185     -0.019724
Li	     10.77841      4.08238     -2.05642         0.017530     -0.014894      0.010159
Li	     10.66139      8.05583     -6.04419         0.022395     -0.011176      0.005307
Li	      2.37181      4.08019      1.95164        -0.006775     -0.000265     -0.002889
Li	      2.46340      8.11985     -2.08683         0.000000      0.024089     -0.025271
Li	     10.77221      6.07694     -0.05967         0.012923     -0.008977      0.016271
Li	     10.64099     10.05785     -4.03886         0.024353     -0.008290      0.010791
Li	      4.39412      6.06025      1.98036         0.000725      0.015217     -0.016320
Li	      4.45099     10.13614     -2.09731        -0.010389      0.003304      0.003851
Li	     13.00483      4.06377     -4.02819        -0.016151      0.003050      0.002434
Li	     12.65494     12.04814     -4.02334         0.031289      0.000679     -0.002796
Li	      4.39432      4.05242     -0.02830         0.002403      0.016102     -0.016250
Li	      4.44539      8.12882     -4.10502        -0.007558     -0.001185     -0.003706
Li	     13.03447      6.05887     -2.03792        -0.017812     -0.022434      0.013284
Li	     12.66211     10.06694     -6.04823         0.021537      0.006520     -0.000592
Li	      6.52198      4.02800     -2.01909         0.005437     -0.009486      0.010275
Li	      6.51650      8.07263     -6.06407        -0.007514     -0.018401      0.017561
Li	     15.19512      6.05094     -4.05648        -0.025508     -0.013047      0.015378
Li	     14.84213     10.32054     -8.32181        -0.011186     -0.044621      0.032025
Li	      6.52934      6.03879     -0.00571         0.003234     -0.009789      0.010871
Li	      6.52155     10.08299     -4.05425        -0.002321     -0.021211      0.021628
Li	     14.82031      8.01094     -1.98827        -0.020136     -0.004791      0.012648
Li	     14.80699     12.29735     -6.28468        -0.018837     -0.039149      0.048613
Ni	     17.18682      6.28622     -6.15339        -0.034108     -0.139723      0.003523
Ni	      0.08909     10.17816     -2.17457         0.028627     -0.243260      0.266329
Ni	      8.66665      4.04241     -4.04038        -0.013069     -0.055882      0.063633
Ni	      8.62551     12.10083     -4.06351        -0.015344     -0.047463      0.038900
Ni	     17.19344      8.15015     -4.28324        -0.027413     -0.004601      0.140641
Ni	      0.10681      8.20768     -4.14537         0.052526     -0.257227      0.228108
Ni	      8.66006      6.05360     -2.03094        -0.034408     -0.061753      0.056129
Ni	      8.62424     10.09093     -6.07557        -0.024014     -0.044601      0.047086
Ni	      2.25426      4.06219     -2.05393        -0.061160      0.002360     -0.004051
Ni	      2.18530      8.11663     -6.10776         0.007442     -0.017694      0.019426
Ni	     10.82064      6.08115     -4.06418        -0.027210     -0.012503     -0.012644
Ni	     10.77460     10.09931     -8.09511         0.041820     -0.013583      0.010536
Ni	      2.17217      6.09801     -0.06896        -0.011056      0.020915     -0.021771
Ni	      2.17056     10.11982     -4.08636         0.023652     -0.043783      0.045038
Ni	     10.81584      8.08281     -2.06023        -0.037220      0.014351      0.014752
Ni	     10.77450     12.10926     -6.08519         0.039685     -0.004271      0.009626
Ni	      4.33835      8.07997     -0.04206         0.025638      0.008702     -0.002624
Ni	      4.31050     12.12177     -4.08590         0.061047      0.025245     -0.009817
Ni	     12.94419      6.06426     -6.06749         0.011522      0.017011     -0.018652
Ni	     12.89483     10.08960    -10.09710         0.032397     -0.007189      0.024594
Ni	      4.33862      6.07385     -2.04920         0.023266      0.004058     -0.006594
Ni	      4.30897     10.11634     -6.09297         0.061286      0.005980     -0.023086
Ni	     12.93792      8.08787     -4.07147         0.004662      0.021068     -0.019967
Ni	     12.90655     12.08461     -8.07236         0.077704     -0.041464      0.023362
Ni	      6.49323      6.08627     -4.07612         0.022699      0.046055     -0.047095
Ni	      6.47898     10.13578     -8.13055         0.027794      0.053095     -0.053567
Ni	     14.98706      8.01270     -5.99699        -0.086527      0.191718     -0.203582
Ni	     15.15725     12.15459    -10.13231        -0.050711      0.013228     -0.003823
Ni	      6.49311      8.09644     -2.06384         0.032693      0.055894     -0.053309
Ni	      6.47590     12.14652     -6.11968         0.049945      0.051749     -0.048675
Ni	     15.05736     10.00398     -3.98840        -0.113815      0.227205     -0.212426
Ni	     15.18415     14.13421     -8.10634        -0.075237     -0.031407      0.032652
O	      4.30032      4.14979     -2.14034         0.065161     -0.136816      0.137094
O	      4.30711      8.19237     -6.17293         0.055570     -0.137743      0.153026
O	     12.87800      6.19539     -4.08819         0.112540     -0.205139      0.166217
O	     12.96599     10.16028     -8.09308         0.070058     -0.157798      0.179525
O	      4.28499      6.16527     -0.13559         0.042280     -0.155521      0.156676
O	      4.34508     10.21350     -4.17594         0.020347     -0.132354      0.138636
O	     12.86136      8.11158     -2.18370         0.097032     -0.155638      0.205359
O	     12.94421     12.10411     -6.14686         0.078673     -0.191710      0.165516
O	      6.48716      4.16649     -4.16523         0.014928     -0.131009      0.121125
O	      6.48595      8.22237     -8.22360        -0.031370     -0.137203      0.132774
O	     15.13791     10.09709     -2.07471         0.015777     -0.179549      0.165458
O	     15.37751     14.03104     -6.05119        -0.072036     -0.080923      0.094494
O	      6.48643      6.17531     -2.15628         0.011275     -0.119970      0.126683
O	      6.48744     10.22838     -6.21777        -0.030291     -0.137129      0.130758
O	     15.15850      8.09139     -4.06008         0.003911     -0.177943      0.174943
O	     15.42257     12.04266     -7.99032        -0.102539     -0.084618      0.091934
O	      4.38916      5.97951     -3.96798        -0.075619      0.130807     -0.138991
O	      4.33819     10.00637     -8.00650        -0.062190      0.143239     -0.146767
O	     13.04220      8.09351     -6.01515        -0.149098      0.112073     -0.151722
O	     13.06055     12.04315     -9.94954        -0.010003      0.219312     -0.202457
O	      4.41293      7.99047     -1.95852        -0.089055      0.148310     -0.148004
O	      4.39638     12.04196     -6.02420        -0.095554      0.124542     -0.150155
O	     13.08919     10.03841     -4.08456        -0.097071      0.143809     -0.116947
O	     13.06442     13.95471     -8.02038         0.045983      0.229283     -0.234776
O	      6.46224      1.95217     -1.95005        -0.005914      0.130978     -0.134156
O	      6.50104      5.98265     -5.98152        -0.001226      0.136872     -0.129229
O	     15.03717      7.95803     -0.01100         0.040524      0.140910     -0.113605
O	      6.46323      3.95925      0.05718        -0.002146      0.134421     -0.136556
O	      6.50306      7.99145     -3.97042        -0.007444      0.139167     -0.133694
O	     15.11014      6.05816     -1.90274         0.036670      0.119371     -0.172649
O	      0.03940      2.08882     -0.08993        -0.004450     -0.131109      0.130393
O	      8.64903      4.14941     -2.13700         0.001328     -0.125602      0.121551
O	      8.61023      8.18739     -6.18404        -0.004472     -0.144285      0.140159
O	      8.64821      6.16025     -0.12529        -0.000654     -0.139818      0.134100
O	      8.60528     10.19602     -4.16905        -0.003932     -0.138542      0.146493
O	      1.96923      4.22154     -0.07369         0.092821     -0.184860      0.104399
O	      2.07441      8.16936     -4.06258         0.108260     -0.115162      0.123005
O	     10.73927      6.18022     -2.15020         0.062897     -0.115613      0.134059
O	     10.71338     10.19799     -6.17657         0.069604     -0.134497      0.116692
O	      1.96630      6.10267      1.80670         0.091153     -0.110385      0.189534
O	      2.05945     10.09187     -2.13013         0.118881     -0.125537      0.106897
O	     10.79119      4.16613     -4.15425         0.052847     -0.134148      0.142305
O	     10.73205     12.19518     -4.16483         0.054095     -0.108039      0.125560
O	     16.86951      8.36481     -6.36550         0.169670      0.087867     -0.080714
O	      0.05430      8.05669     -6.04806        -0.033661      0.205501     -0.199359
O	      8.63637      5.95627     -3.94957         0.006757      0.124728     -0.130443
O	      8.64102      9.99967     -7.99686        -0.023269      0.126418     -0.133100
O	     17.00068     10.24517     -4.22119         0.126004      0.101431     -0.104179
O	      0.05614     10.14258     -4.10647        -0.038343      0.221213     -0.216886
O	      8.63831      7.97072     -1.93197        -0.000408      0.126258     -0.117470
O	      8.63995     12.00938     -5.98102        -0.016060      0.124401     -0.121259
O	      2.18737      8.02224     -0.05604        -0.091965      0.146482     -0.100159
O	      2.24111     12.00638     -4.08444        -0.096689      0.185813     -0.153534
O	     10.81137      9.99733     -1.96767        -0.075747      0.120193     -0.125828
O	     10.82639     14.01825     -5.98779        -0.098002      0.118078     -0.108975
O	      2.18575      6.08727     -1.99396        -0.093388      0.100427     -0.144165
O	      2.23590     10.11743     -5.97616        -0.102763      0.158621     -0.183658
O	     10.78605      7.99999     -3.99342        -0.076705      0.113634     -0.118721
O	     10.82895     12.01551     -7.99749        -0.089173      0.120989     -0.136396
