# total energy = -543.56216270 eV
 
CRYSTAL
PRIMVEC
-0.001705 3.817696 3.820607 
16.161122 3.860026 -3.870225 
-0.005127 7.726000 -7.731544 
PRIMCOORD
124 1
Li	      7.65049      5.48073      1.76464        -0.254686     -0.112244      0.827678
Li	      7.65788      9.15510     -1.91508         0.153763      0.426771      0.223591
Li	      0.20959     10.83284     -3.78470        -1.881425      0.340159      0.290400
Li	     15.33371     10.84873     -3.78439         0.618425      1.610617      0.138323
Li	      7.64737      3.67207     -0.04690        -0.264910     -0.826478      0.420353
Li	      7.66564      7.35279     -3.71765         0.155709     -0.028891     -0.160125
Li	      0.21128      9.22413     -5.39400        -2.470775     -0.199732     -0.326319
Li	     15.32835      9.21530     -5.41711         1.028732     -0.009508     -1.389637
Li	      2.14473      1.85072     -0.03521        -0.227573     -0.757334      0.662901
Li	      2.09883      5.52628     -3.71590        -1.486902      0.110886     -0.402606
Li	      9.50867      3.63918     -1.82943         0.777134     -0.726616      0.177249
Li	      9.53551      7.32303     -5.51891         0.668308     -0.515253      0.035529
Li	      1.89788      3.65227      1.78823         0.413634     -0.402882      0.330176
Li	      1.81236      7.30237     -1.86252        -0.164009      0.484542      0.036305
Li	      9.48960      5.45304     -0.01962         0.825462     -0.622317      0.953413
Li	      9.60805      9.14314     -3.70389        -0.082288      0.377281      0.202639
Li	      3.85955      5.46686      1.77602         0.584447     -0.048831      0.503997
Li	      3.86489      9.13925     -1.89064        -0.498892      0.278092      0.304686
Li	     11.29964      7.25294     -0.02740         0.961691     -0.219708      0.982352
Li	     11.56048     10.94328     -3.70537        -0.102984      0.762899      0.281028
Li	      3.86092      3.66567     -0.02582         0.483419     -0.498299      0.393371
Li	      3.86780      7.33088     -3.70077        -0.524402     -0.005525     -0.024535
Li	     11.30051      5.45138     -1.81197         1.271071     -0.892480      0.569189
Li	     11.56583      9.16882     -5.54452        -0.045456     -0.526967      0.089503
Li	      5.76833      3.63337     -1.82232         0.024106     -0.857332      0.267494
Li	      5.78572      7.30124     -5.49119        -0.109095     -0.485504     -0.196433
Li	     13.18255      5.64914     -3.84678         1.487801     -1.819188      1.173670
Li	     13.20774      9.10150     -7.29117         0.422089     -0.221110     -0.332630
Li	      5.77224      5.44759     -0.00822        -0.477268     -0.322307      1.011027
Li	      5.77577      9.11696     -3.67867        -0.084921      0.419638      0.136480
Li	     13.47135      7.48712     -2.05012         0.562187      0.149364      1.571535
Li	     13.53217     10.94343     -5.51696        -0.610915     -0.008201      0.716333
Ni	      0.00373      5.43382      1.73786        -2.005165     -0.241495      2.848392
Ni	     15.32673     12.81229     -5.64698         2.848194      2.524931      3.011548
Ni	      7.67493      7.27921     -0.03514        -0.504954      3.638398      4.518255
Ni	      7.70176      7.32806     -7.32604        -0.540057     -4.020134     -3.913287
Ni	     15.34726      7.37121     -3.66936         3.085636     -3.392833      0.579185
Ni	     15.33408     11.07685     -7.38326         4.149479     -2.684017     -1.908543
Ni	      7.67657      5.47062     -1.84642        -0.390245     -1.497721     -0.617587
Ni	      7.70041      9.14214     -5.50903        -0.690635      0.843517      1.000539
Ni	      1.88033      3.66894     -1.85575        -1.610364     -0.550049      0.085912
Ni	      1.89138      7.35830     -5.54715        -1.475971     -2.379989      0.479306
Ni	      9.61476      5.48548     -3.68409        -0.395509     -3.408864     -3.680857
Ni	      9.61957      9.17289     -7.35797        -0.602479     -0.492462     -4.199305
Ni	      1.87012      5.49175     -0.05200        -1.751023      2.314894      2.273348
Ni	      1.93843      9.15045     -3.70992        -1.561702      1.501668      4.180353
Ni	      9.61803      7.30598     -1.86709         0.066614      1.034048      0.480621
Ni	      9.63040     10.97677     -5.54596        -1.499032      1.973798      2.819554
Ni	      3.78474      3.67697     -3.67595         0.169383     -4.051232     -3.980610
Ni	      3.82152      7.34216     -7.34436         0.425100     -3.144565     -4.421843
Ni	     11.55851      9.09628     -1.85931         0.313979      4.367029      4.009379
Ni	     11.52611     12.78852     -5.54799        -0.149048      3.966009      2.425678
Ni	      3.78419      5.48664     -1.86453         0.050087      0.879418      1.102516
Ni	      3.82109      9.15418     -5.53077         0.300302      1.460242      0.292638
Ni	     11.53681      7.30343     -3.66566         0.520714     -0.727537     -0.759103
Ni	     11.53178     10.98448     -7.36970        -0.633180      0.641047     -2.282958
Ni	      5.73255      5.51050     -3.70131         0.899848     -3.358922     -4.558492
Ni	      5.74548      9.18078     -7.37010         0.836757      2.117768     -6.915933
Ni	     13.47370      7.31766     -5.52128         0.623106     -3.070322     -0.309576
Ni	     13.43840     10.90032     -9.09177        -0.142471      3.419653     -5.026870
Ni	      5.72740      7.32430     -1.88692        -0.534734      1.527390      0.703176
Ni	      5.74450     10.99434     -5.55503         0.155560      6.937742     -4.048596
Ni	     13.45689      9.18374     -3.74103         0.829472      2.912060      3.091477
Ni	     13.41398     12.68076     -7.26027         0.222501      4.883526     -1.008631
O	      3.79861      3.76073     -1.94682         1.239092     -3.232792      2.265350
O	      3.82519      7.42703     -5.61724         1.326862     -2.964563      2.447252
O	     11.53261      5.46971     -3.74391         0.145737     -2.299417      0.669420
O	     11.44878      9.27711     -7.39266         0.567936     -3.550079     -0.404981
O	      3.75166      5.56672     -0.12378         1.242471      0.123579      3.575645
O	      3.80834      9.22769     -3.79092         1.162617      0.488176      2.924069
O	     11.62841      7.35607     -1.84680         1.175283     -4.643127      1.496012
O	     11.48571     10.99940     -5.65705         1.487970     -2.267169      3.789959
O	      5.72677      7.40236     -0.15758        -0.023673      0.345956      3.747652
O	      5.75668     11.07316     -3.82503        -0.024635     -0.343635      3.097977
O	     13.52623      5.58470     -5.48086         0.365238     -3.648906     -1.363465
O	     13.48608      9.15735     -9.13809         0.133662     -4.173284     -0.315499
O	      5.72781      5.59469     -1.96733         0.017217     -3.112323      2.377347
O	      5.75807      9.26366     -5.63531         0.377943     -4.230821      3.847939
O	     13.50399      7.28755     -3.77874        -0.781824     -0.766727      2.454469
O	     13.50493     10.92547     -7.34962        -0.221734     -2.856467      3.844914
O	      3.85693      5.41197     -3.60347        -0.459276      1.971090     -2.928540
O	      3.88673      9.08097     -7.26808        -1.625869      2.357086     -3.062424
O	     11.72508      7.20722     -5.47041        -2.967773      1.033241     -1.021597
O	     11.66192     11.00114     -9.12800        -2.961890      0.901020     -3.437279
O	      3.79181      7.21167     -1.77442        -1.385981      3.466550      0.132890
O	      3.83053     10.88182     -5.44237        -1.247297      4.140742     -0.927598
O	     11.63625      9.09366     -3.57395        -1.800766      1.459012     -2.986370
O	     11.66840     12.73420     -7.38072        -2.976414      3.753179     -2.697013
O	      5.75093      1.74651     -1.74710        -0.041121     -2.022277      0.419777
O	      5.74371      9.04177     -1.79249         0.127107      4.112503      0.371472
O	     13.47855      7.34161     -7.19168         0.249601     -0.478668     -5.078498
O	      5.75005      3.56323      0.07078        -0.024540     -0.993119      2.218553
O	      5.74458      7.23191     -3.60401         0.166082      2.303710     -3.286767
O	     13.45049      8.98443     -5.52342         0.383297      5.072501     -1.904323
O	      7.65973      3.74723     -1.94341         0.482366     -3.948437      0.098469
O	      7.68762      7.41556     -5.60139        -0.315235     -3.110216      2.540209
O	     15.25545      7.29481     -1.86573         2.719747     -0.906234      2.612422
O	      0.03108      7.34799     -1.91332        -1.730345     -2.245550      2.671140
O	      7.63478      5.55776     -0.12749         0.268690     -2.595423      3.593288
O	      7.68199      9.23944     -3.79252         0.282059      0.188923      3.358605
O	      1.80826      3.65645     -0.13353        -0.781756     -1.921449      4.254955
O	      1.77894      7.34425     -3.84024        -0.656764     -0.895857      2.651315
O	      9.56129      5.58646     -1.90927         1.249649     -3.759993      3.327382
O	      9.58441      9.26113     -5.59548         0.584891     -2.879836      3.150602
O	      1.81476      1.94692     -1.84959         0.295839     -4.498371      0.308419
O	      1.78028      5.65295     -5.53370        -0.459519     -3.216720     -1.059630
O	      9.55179      7.33550     -0.14493         1.185947     -0.665501      4.117397
O	      9.60837      7.46238     -7.41768         1.308999     -3.733498      0.053523
O	     15.21228      7.27912     -5.46929         4.237182     -0.231594     -2.609805
O	     15.15899     11.12950     -9.32746         3.486963      0.171303     -1.586046
O	      7.68008      5.38897     -3.58064        -0.124254     -0.279213     -3.681011
O	      7.69062      9.05983     -7.24178         0.000795      2.423612     -2.997951
O	     15.31366      9.13602     -3.70558         1.882003      2.607716     -0.884743
O	     15.16352     12.85890     -7.42778         3.091874      4.067431     -3.148997
O	      7.66711      7.20632     -1.76983         0.174785      2.869469     -2.451363
O	      7.68543     10.87762     -5.42840        -0.006331      3.487097     -0.557367
O	      1.88347      3.67733     -3.55992        -1.734888     -0.656408     -3.455114
O	      1.93826      7.34060     -7.26014        -2.121333      0.309498     -4.550481
O	      9.67149      9.02728     -1.82718        -1.057074      3.470379     -0.225947
O	      9.61823     12.69576     -5.49620        -1.695892      3.647553     -1.027743
O	      1.88446      5.37181     -1.85987        -1.840465      2.957830     -1.680398
O	      1.93837      9.07032     -5.52725        -1.553513      4.412529     -2.350020
O	      9.67106      7.26176     -3.58826        -1.243434      2.928791     -3.149969
O	      9.60247     10.89071     -7.30774        -1.717950      3.280654     -3.324107
