# total energy = -563.12597841 eV
 
CRYSTAL
PRIMVEC
-0.001723 3.857882 3.860823 
16.331239 3.900658 -3.910965 
-0.005181 7.807326 -7.812928 
PRIMCOORD
124 1
Li	      7.81240      5.59673      1.80199        -0.215446     -0.101729      0.584231
Li	      7.81996      9.34886     -1.95561         0.128821      0.333503      0.129876
Li	      0.21401     11.06210     -3.86479        -1.608697      0.215749      0.216667
Li	     15.65823     11.07833     -3.86448         0.516227      1.231069      0.065850
Li	      7.80922      3.74978     -0.04789        -0.258690     -0.579950      0.300110
Li	      7.82787      7.50840     -3.79632         0.103433      0.002101     -0.149102
Li	      0.21574      9.41934     -5.50816        -1.980345     -0.153960     -0.196311
Li	     15.65275      9.41032     -5.53175         0.792451     -0.010810     -1.019847
Li	      2.19011      1.88989     -0.03595        -0.248588     -0.530745      0.486467
Li	      2.14324      5.64323     -3.79455        -1.141611      0.095046     -0.314251
Li	      9.70991      3.71620     -1.86815         0.601766     -0.520893      0.150578
Li	      9.73732      7.47802     -5.63572         0.495071     -0.390120      0.041379
Li	      1.93805      3.72957      1.82606         0.342163     -0.325605      0.227421
Li	      1.85072      7.45691     -1.90193        -0.130568      0.353865     -0.003130
Li	      9.69043      5.56844     -0.02003         0.617817     -0.444882      0.684337
Li	      9.81138      9.33663     -3.78228        -0.056481      0.245259      0.198916
Li	      3.94123      5.58256      1.81360         0.424976     -0.056053      0.389125
Li	      3.94669      9.33266     -1.93065        -0.366254      0.208656      0.187838
Li	     11.53879      7.40644     -0.02799         0.705711     -0.156086      0.743932
Li	     11.80515     11.17488     -3.78380        -0.071692      0.535958      0.261974
Li	      3.94264      3.74326     -0.02637         0.384101     -0.360204      0.297011
Li	      3.94964      7.48602     -3.77909        -0.383750      0.019036     -0.031009
Li	     11.53966      5.56675     -1.85032         0.941903     -0.684372      0.393542
Li	     11.81060      9.36286     -5.66186        -0.072074     -0.409623      0.087297
Li	      5.89041      3.71027     -1.86090         0.021093     -0.656237      0.299914
Li	      5.90816      7.45576     -5.60740        -0.061948     -0.349396     -0.118604
Li	     13.46154      5.76869     -3.92819         1.067358     -1.383145      0.839236
Li	     13.48726      9.29412     -7.44547         0.334746     -0.199608     -0.235073
Li	      5.89440      5.56288     -0.00839        -0.359121     -0.344143      0.738250
Li	      5.89801      9.30990     -3.75652        -0.063579      0.323435      0.124336
Li	     13.75645      7.64558     -2.09351         0.422230      0.130993      1.205728
Li	     13.81856     11.17504     -5.63373        -0.512597     -0.032071      0.541552
Ni	      0.00381      5.54882      1.77463        -1.726420     -0.226130      3.019253
Ni	     15.65109     13.08344     -5.76649         2.402200      2.604689      2.253021
Ni	      7.83737      7.43326     -0.03589        -0.352396      2.675865      3.278446
Ni	      7.86474      7.48314     -7.48108        -0.450149     -3.167380     -2.851806
Ni	     15.67207      7.52721     -3.74702         2.299958     -2.508581      0.289530
Ni	     15.65860     11.31127     -7.53952         3.300516     -1.929373     -2.144960
Ni	      7.83902      5.58639     -1.88550        -0.274281     -1.129101     -0.479702
Ni	      7.86337      9.33562     -5.62563        -0.574785      0.518620      0.954652
Ni	      1.92012      3.74659     -1.89503        -1.128920     -0.408335      0.123501
Ni	      1.93141      7.51402     -5.66455        -1.046261     -1.792228      0.459081
Ni	      9.81824      5.60158     -3.76207        -0.227778     -2.412791     -2.700499
Ni	      9.82314      9.36702     -7.51369        -0.449001     -0.435871     -2.804368
Ni	      1.90970      5.60798     -0.05311        -1.220360      1.580020      1.607232
Ni	      1.97945      9.34410     -3.78844        -1.041827      0.986881      3.090369
Ni	      9.82159      7.46061     -1.90661         0.105390      0.810432      0.317763
Ni	      9.83421     11.20907     -5.66333        -1.131962      1.382098      2.022367
Ni	      3.86485      3.75480     -3.75375         0.085223     -2.999068     -2.933697
Ni	      3.90240      7.49754     -7.49979         0.257253     -2.484043     -3.286700
Ni	     11.80313      9.28880     -1.89867         0.443116      3.027377      2.894846
Ni	     11.77004     13.05917     -5.66540        -0.068263      2.920654      1.689608
Ni	      3.86429      5.60277     -1.90400         0.033177      0.647794      0.831727
Ni	      3.90195      9.34792     -5.64782         0.157963      1.095416      0.408709
Ni	     11.78096      7.45799     -3.74323         0.138510     -0.521592     -0.563775
Ni	     11.77582     11.21695     -7.52567        -0.452450      0.525265     -1.744205
Ni	      5.85388      5.62713     -3.77964         0.697012     -2.424914     -3.353488
Ni	      5.86709      9.37507     -7.52608         0.590031      1.987641     -4.904426
Ni	     13.75886      7.47252     -5.63814         0.376428     -2.499495     -0.306402
Ni	     13.72280     11.13100     -9.28419        -0.115408      2.636590     -3.814770
Ni	      5.84861      7.47930     -1.92685        -0.375655      1.154846      0.475311
Ni	      5.86606     11.22701     -5.67259         0.126103      5.225236     -3.234001
Ni	     13.74170      9.37810     -3.82022         0.628962      2.135244      2.410703
Ni	     13.69787     12.94913     -7.41392         0.211863      3.669934     -0.844728
O	      3.87901      3.84032     -1.98802         0.917819     -2.333088      1.654904
O	      3.90614      7.58421     -5.73612         0.936578     -2.211341      1.563634
O	     11.77667      5.58547     -3.82314         0.087075     -2.373987      0.229402
O	     11.69108      9.47345     -7.54911         0.113440     -2.546150     -0.208170
O	      3.83105      5.68452     -0.12639         0.935060      0.056590      2.635480
O	      3.88894      9.42299     -3.87116         0.799087      0.213723      2.198134
O	     11.87450      7.51175     -1.88588         0.847504     -2.722279      1.863298
O	     11.72878     11.23218     -5.77678         1.075224     -1.699624      2.741747
O	      5.84797      7.55901     -0.16091        -0.012318      0.189485      2.817327
O	      5.87851     11.30750     -3.90598         0.028544     -0.404363      2.308699
O	     13.81249      5.70289     -5.59685         0.415970     -2.560054     -1.087298
O	     13.77150      9.35115     -9.33149         0.054926     -3.303642     -0.186880
O	      5.84902      5.71309     -2.00896        -0.007010     -2.262396      1.759932
O	      5.87994      9.45971     -5.75458         0.076229     -2.934820      1.996762
O	     13.78978      7.44178     -3.85871        -0.469665     -0.545274      1.785930
O	     13.79073     11.15668     -7.50515        -0.177218     -2.142890      3.034853
O	      3.93856      5.52651     -3.67973        -0.321356      1.427645     -2.086219
O	      3.96898      9.27315     -7.42190        -0.601926      1.928590     -2.420048
O	     11.97323      7.35976     -5.58618        -1.969241      0.230226     -1.710246
O	     11.90872     11.23396     -9.32118        -2.246780      0.756966     -2.469484
O	      3.87206      7.36429     -1.81197        -1.013339      2.505663      0.083598
O	      3.91160     11.11212     -5.55756        -0.989616      3.167273     -0.509861
O	     11.88250      9.28612     -3.64959        -1.267444      1.691693     -1.677136
O	     11.91535     13.00370     -7.53692        -2.234520      2.725652     -2.048387
O	      5.87264      1.78347     -1.78408        -0.041907     -1.824578      0.795864
O	      5.86527      9.23312     -1.83043         0.082515      2.953192      0.242164
O	     13.76381      7.49699     -7.34389         0.285116     -0.256896     -3.774694
O	      5.87175      3.63863      0.07228        -0.010051     -0.711553      1.834207
O	      5.86616      7.38496     -3.68029         0.121415      1.728169     -2.403241
O	     13.73514      9.17457     -5.64031         0.295997      3.821970     -1.325432
O	      7.82183      3.82653     -1.98453         0.369287     -2.917789      0.116253
O	      7.85031      7.57250     -5.71993        -0.214169     -2.391036      1.723132
O	     15.57831      7.44920     -1.90522         2.253361     -0.786831      1.863252
O	      0.03174      7.50349     -1.95381        -1.448162     -2.280005      2.537568
O	      7.79635      5.67539     -0.13019         0.197787     -1.967132      2.664027
O	      7.84456      9.43497     -3.87278         0.232332      0.101098      2.542594
O	      1.84653      3.73384     -0.13636        -0.703178     -1.389270      3.123793
O	      1.81660      7.49968     -3.92152        -0.613240     -0.620951      1.889003
O	      9.76365      5.70470     -1.94968         0.900609     -2.737371      2.537903
O	      9.78724      9.45712     -5.71389         0.997208     -1.959626      1.856149
O	      1.85317      1.98812     -1.88873         0.291893     -3.347531      0.264987
O	      1.81796      5.77259     -5.65081        -0.478007     -2.355947     -0.830712
O	      9.75393      7.49075     -0.14800         0.822588     -0.596472      3.022497
O	      9.81173      7.62031     -7.57466         0.944207     -2.594226      0.161894
O	     15.53423      7.43317     -5.58504         3.150610      0.038658     -1.831017
O	     15.47981     11.36503     -9.52486         2.738397      0.122256     -1.115396
O	      7.84262      5.50302     -3.65642        -0.108113     -0.144857     -2.630246
O	      7.85338      9.25157     -7.39504        -0.227062      1.927297     -2.458450
O	     15.63774      9.32936     -3.78400         1.197270      1.906744     -1.408569
O	     15.48444     13.13104     -7.58498         2.408485      3.174187     -2.484836
O	      7.82937      7.35883     -1.80729         0.114849      2.061284     -1.747977
O	      7.84809     11.10782     -5.54328         0.134929      2.731771     -0.336247
O	      1.92333      3.75515     -3.63526        -1.317179     -0.493755     -2.478701
O	      1.97927      7.49595     -7.41379        -1.603698      0.269236     -3.358682
O	      9.87617      9.21832     -1.86585        -0.925994      2.473238     -0.262690
O	      9.82178     12.96444     -5.61252        -1.230086      2.722412     -0.569583
O	      1.92434      5.48549     -1.89923        -1.415025      2.124994     -1.202343
O	      1.97939      9.26228     -5.64422        -1.569620      3.231638     -1.703473
O	      9.87574      7.41544     -3.66420        -0.955215      2.115625     -2.234753
O	      9.80568     11.12119     -7.46240        -1.241383      2.367725     -2.575047
