# total energy = -577.70825256 eV
 
CRYSTAL
PRIMVEC
-0.001741 3.898068 3.901040 
16.501356 3.941290 -3.951704 
-0.005235 7.888652 -7.894313 
PRIMCOORD
124 1
Li	      7.97600      5.71392      1.83973        -0.130204     -0.079470      0.401513
Li	      7.98371      9.54464     -1.99656         0.105351      0.235658      0.069559
Li	      0.21850     11.29376     -3.94572        -1.279147      0.127369      0.143070
Li	     15.98614     11.31033     -3.94541         0.406994      0.873657      0.031125
Li	      7.97277      3.82832     -0.04890        -0.180471     -0.393883      0.206470
Li	      7.99180      7.66564     -3.87582         0.084504      0.014904     -0.118200
Li	      0.22026      9.61660     -5.62351        -1.486452     -0.087624     -0.085626
Li	     15.98054      9.60739     -5.64760         0.577449     -0.013565     -0.695877
Li	      2.23597      1.92945     -0.03670        -0.228571     -0.363817      0.341109
Li	      2.18813      5.76141     -3.87400        -0.832035      0.079166     -0.234687
Li	      9.91326      3.79403     -1.90727         0.433233     -0.379195      0.132040
Li	      9.94124      7.63462     -5.75374         0.354136     -0.258906      0.025089
Li	      1.97863      3.80767      1.86431         0.248636     -0.242418      0.157409
Li	      1.88948      7.61307     -1.94177        -0.104326      0.244835     -0.020890
Li	      9.89337      5.68505     -0.02046         0.441399     -0.314952      0.495780
Li	     10.01686      9.53216     -3.86148        -0.058581      0.159921      0.141022
Li	      4.02378      5.69947      1.85158         0.275418     -0.049899      0.284724
Li	      4.02934      9.52811     -1.97108        -0.269159      0.144457      0.118148
Li	     11.78043      7.56154     -0.02857         0.480059     -0.130089      0.534363
Li	     12.05237     11.40890     -3.86304        -0.060854      0.381791      0.197151
Li	      4.02521      3.82164     -0.02692         0.255555     -0.250802      0.208898
Li	      4.03236      7.64279     -3.85823        -0.276868      0.018866     -0.025772
Li	     11.78132      5.68333     -1.88907         0.649273     -0.500930      0.287718
Li	     12.05793      9.55894     -5.78043        -0.070488     -0.286940      0.051482
Li	      6.01377      3.78797     -1.89986         0.020413     -0.475767      0.241654
Li	      6.03189      7.61190     -5.72483        -0.036307     -0.259900     -0.053738
Li	     13.74344      5.88950     -4.01046         0.766774     -0.989562      0.579044
Li	     13.76972      9.48876     -7.60141         0.207395     -0.159695     -0.159772
Li	      6.01784      5.67938     -0.00857        -0.244545     -0.262380      0.492104
Li	      6.02151      9.50487     -3.83519        -0.037199      0.222977      0.115171
Li	     14.04454      7.80569     -2.13735         0.322142      0.099385      0.869472
Li	     14.10795     11.40906     -5.75170        -0.385776     -0.042673      0.386054
Ni	      0.00388      5.66502      1.81180        -1.536304     -0.248806      2.762196
Ni	     15.97887     13.35743     -5.88725         2.058117      2.329215      1.585971
Ni	      8.00150      7.58893     -0.03664        -0.216837      1.821163      2.248416
Ni	      8.02944      7.63985     -7.63775        -0.268851     -2.203988     -1.956093
Ni	     16.00026      7.68484     -3.82549         1.779145     -1.764425      0.111111
Ni	     15.98652     11.54815     -7.69740         2.620371     -1.297181     -1.968775
Ni	      8.00320      5.70338     -1.92498        -0.158811     -0.797449     -0.330992
Ni	      8.02804      9.53112     -5.74343        -0.322487      0.355091      0.685735
Ni	      1.96034      3.82506     -1.93472        -0.763607     -0.296382      0.150043
Ni	      1.97184      7.67138     -5.78317        -0.737963     -1.293694      0.373653
Ni	     10.02386      5.71889     -3.84085        -0.158652     -1.639815     -1.827666
Ni	     10.02887      9.56319     -7.67104        -0.331566     -0.312587     -1.914500
Ni	      1.94970      5.72542     -0.05422        -0.847843      0.981452      1.071234
Ni	      2.02091      9.53979     -3.86778        -0.694164      0.592307      2.172323
Ni	     10.02727      7.61684     -1.94653         0.096932      0.577844      0.211910
Ni	     10.04016     11.44382     -5.78193        -0.789291      0.991652      1.334721
Ni	      3.94578      3.83342     -3.83235         0.039014     -2.077083     -2.026466
Ni	      3.98413      7.65455     -7.65685         0.154089     -1.716461     -2.275320
Ni	     12.05031      9.48332     -1.93843         0.347363      2.076768      2.060590
Ni	     12.01653     13.33266     -5.78405        -0.099877      2.004073      1.131998
Ni	      3.94521      5.72009     -1.94387         0.009527      0.458995      0.588141
Ni	      3.98366      9.54369     -5.76610         0.072325      0.771441      0.304245
Ni	     12.02768      7.61418     -3.82162         0.023388     -0.393799     -0.415838
Ni	     12.02244     11.45186     -7.68327        -0.337103      0.358079     -1.230902
Ni	      5.97646      5.74497     -3.85880         0.496199     -1.639095     -2.300418
Ni	      5.98994      9.57140     -7.68369         0.405717      1.756265     -3.591088
Ni	     14.04699      7.62901     -5.75621         0.320980     -1.864851     -0.196690
Ni	     14.01020     11.36410     -9.47861        -0.119488      1.914568     -2.737178
Ni	      5.97109      7.63593     -1.96720        -0.260056      0.807243      0.312350
Ni	      5.98890     11.46212     -5.79138         0.077715      3.956877     -2.437274
Ni	     14.02947      9.57450     -3.90021         0.476504      1.443503      1.681610
Ni	     13.98473     13.22031     -7.56919         0.175364      2.629845     -0.688329
O	      3.96024      3.92074     -2.02965         0.657778     -1.582675      1.146982
O	      3.98794      7.74304     -5.85625         0.654918     -1.501302      1.059679
O	     12.02330      5.70244     -3.90321         0.062934     -1.720081      0.208071
O	     11.93590      9.67184     -7.70721         0.133933     -1.703093     -0.088477
O	      3.91129      5.80357     -0.12904         0.683236     -0.004583      1.816114
O	      3.97038      9.62032     -3.95222         0.562223      0.094807      1.507674
O	     12.12318      7.66907     -1.92537         0.567000     -1.751055      1.461221
O	     11.97440     11.46740     -5.89775         0.788252     -1.195505      1.862496
O	      5.97043      7.71731     -0.16428        -0.004283      0.090707      1.950152
O	      6.00161     11.54430     -3.98777         0.027333     -0.504941      1.451424
O	     14.10175      5.82232     -5.71406         0.380867     -1.691000     -0.817593
O	     14.05990      9.54699     -9.52691         0.040290     -2.461412     -0.083039
O	      5.97151      5.83273     -2.05104        -0.006384     -1.539953      1.181056
O	      6.00308      9.65781     -5.87508         0.049143     -2.027552      1.127701
O	     14.07856      7.59763     -3.93952        -0.354923     -0.367510      1.198802
O	     14.07953     11.39032     -7.66232        -0.099466     -1.539103      2.257720
O	      4.02104      5.64224     -3.75679        -0.214568      0.983619     -1.399725
O	      4.05210      9.46735     -7.57733        -0.344856      1.356593     -1.678570
O	     12.22398      7.51389     -5.70317        -1.287691      0.075612     -1.399453
O	     12.15811     11.46921     -9.51637        -1.592235      0.603382     -1.698692
O	      3.95315      7.51851     -1.84993        -0.686791      1.713722      0.036854
O	      3.99352     11.34483     -5.67394        -0.676784      2.214934     -0.383336
O	     12.13135      9.48059     -3.72602        -0.782222      1.212778     -1.180667
O	     12.16488     13.27602     -7.69476        -1.577313      1.876337     -1.481516
O	      5.99563      1.82083     -1.82144        -0.029386     -1.587853      0.900960
O	      5.98810      9.42648     -1.86876         0.054460      2.017760      0.152981
O	     14.05205      7.65399     -7.49769         0.225911     -0.116672     -2.641469
O	      5.99470      3.71483      0.07379        -0.005107     -0.538947      1.613623
O	      5.98901      7.53962     -3.75736         0.080564      1.211234     -1.642092
O	     14.02278      9.36671     -5.75843         0.209876      2.696104     -0.852318
O	      7.98563      3.90666     -2.02609         0.251981     -2.019264      0.116499
O	      8.01472      7.73108     -5.83972        -0.170586     -1.631647      1.171702
O	     15.90454      7.60520     -1.94511         1.737752     -0.672767      1.331935
O	      0.03240      7.66063     -1.99473        -1.266697     -1.993762      2.110503
O	      7.95962      5.79423     -0.13291         0.128766     -1.387441      1.845942
O	      8.00883      9.63256     -3.95389         0.138688      0.018682      1.764423
O	      1.88520      3.81203     -0.13921        -0.626543     -0.939175      2.163033
O	      1.85464      7.65674     -4.00365        -0.615862     -0.436416      1.289687
O	      9.96812      5.82416     -1.99050         0.633341     -1.879585      1.838340
O	      9.99221      9.65517     -5.83356         0.732221     -1.302334      1.336686
O	      1.89197      2.02976     -1.92829         0.292403     -2.339477      0.208065
O	      1.85603      5.89348     -5.76915        -0.522595     -1.625383     -0.578570
O	      9.95820      7.64761     -0.15110         0.566403     -0.529746      2.070823
O	     10.01719      7.77989     -7.73329         0.634793     -1.753098      0.176403
O	     15.85955      7.58884     -5.70201         2.146130      0.225135     -1.278767
O	     15.80397     11.60304     -9.72433         2.052690      0.077028     -0.738662
O	      8.00686      5.61827     -3.73300        -0.105599     -0.068748     -1.792453
O	      8.01786      9.44531     -7.54991        -0.233467      1.342906     -1.689686
O	     15.96522      9.52474     -3.86324         0.797742      1.390008     -1.515951
O	     15.80871     13.40603     -7.74383         1.787615      2.338536     -1.850469
O	      7.99334      7.51293     -1.84513         0.060087      1.402522     -1.183382
O	      8.01244     11.34045     -5.65937         0.067506      1.912809     -0.244956
O	      1.96360      3.83379     -3.71139        -0.986598     -0.356215     -1.687412
O	      2.02073      7.65293     -7.56905        -1.194632      0.240522     -2.331604
O	     10.08300      9.41137     -1.90493        -0.655592      1.662548     -0.283068
O	     10.02747     13.23594     -5.73005        -0.854472      1.877248     -0.473316
O	      1.96465      5.60037     -1.93901        -1.056794      1.440350     -0.809092
O	      2.02085      9.45625     -5.76242        -1.226485      2.224274     -1.204866
O	     10.08255      7.57073     -3.74093        -0.642984      1.517022     -1.507568
O	     10.01103     11.35409     -7.61868        -0.843512      1.609832     -1.845114
