# total energy = -583.29633771 eV
 
CRYSTAL
PRIMVEC
-0.001750 3.918161 3.921149 
16.586415 3.961606 -3.972073 
-0.005262 7.929316 -7.935005 
PRIMCOORD
124 1
Li	      8.05844      5.77298      1.85875        -0.088640     -0.068604      0.320409
Li	      8.06623      9.64329     -2.01719         0.090165      0.192918      0.044779
Li	      0.22075     11.41049     -3.98650        -1.088702      0.090974      0.108699
Li	     16.15137     11.42723     -3.98619         0.352812      0.703675      0.018600
Li	      8.05516      3.86788     -0.04940        -0.133805     -0.314600      0.163397
Li	      8.07441      7.74487     -3.91589         0.071287      0.017849     -0.104250
Li	      0.22254      9.71599     -5.68163        -1.229689     -0.058228     -0.046138
Li	     16.14572      9.70669     -5.70597         0.480654     -0.008033     -0.552537
Li	      2.25909      1.94940     -0.03708        -0.205077     -0.296927      0.277236
Li	      2.21075      5.82097     -3.91405        -0.682383      0.071951     -0.195282
Li	     10.01572      3.83324     -1.92698         0.360960     -0.316386      0.120014
Li	     10.04398      7.71353     -5.81321         0.287753     -0.203453      0.017844
Li	      1.99907      3.84702      1.88358         0.196494     -0.199386      0.129037
Li	      1.90900      7.69176     -1.96183        -0.088638      0.196471     -0.021948
Li	      9.99562      5.74381     -0.02066         0.362591     -0.254107      0.406924
Li	     10.12038      9.63069     -3.90140        -0.052382      0.122140      0.111188
Li	      4.06535      5.75838      1.87072         0.200792     -0.043793      0.235651
Li	      4.07098      9.62659     -1.99145        -0.222793      0.120109      0.088909
Li	     11.90219      7.63970     -0.02886         0.385454     -0.117254      0.435046
Li	     12.17694     11.52682     -3.90296        -0.053025      0.306949      0.160080
Li	      4.06681      3.86115     -0.02720         0.190710     -0.201733      0.172090
Li	      4.07404      7.72180     -3.89811        -0.221185      0.011325     -0.022108
Li	     11.90309      5.74208     -1.90859         0.527927     -0.410904      0.238852
Li	     12.18256      9.65774     -5.84018        -0.061428     -0.235040      0.039254
Li	      6.07593      3.82712     -1.91949         0.015090     -0.385570      0.201196
Li	      6.09423      7.69058     -5.78399        -0.026434     -0.221412     -0.023714
Li	     13.88550      5.95037     -4.05191         0.624082     -0.801082      0.459356
Li	     13.91204      9.58683     -7.67997         0.148164     -0.136809     -0.123639
Li	      6.08005      5.73808     -0.00866        -0.196648     -0.211754      0.382431
Li	      6.08376      9.60311     -3.87483        -0.025790      0.161053      0.111728
Li	     14.18970      7.88637     -2.15944         0.275529      0.083893      0.708042
Li	     14.25376     11.52699     -5.81115        -0.310013     -0.044780      0.315841
Ni	      0.00392      5.72358      1.83053        -1.434906     -0.250577      2.476912
Ni	     16.14402     13.49549     -5.94810         1.880159      2.060373      1.287333
Ni	      8.08419      7.66737     -0.03702        -0.159621      1.448680      1.803333
Ni	      8.11245      7.71882     -7.71669        -0.187517     -1.759277     -1.554608
Ni	     16.16564      7.76427     -3.86503         1.549571     -1.437570      0.048506
Ni	     16.15175     11.66751     -7.77696         2.298969     -1.035661     -1.748453
Ni	      8.08591      5.76234     -1.94488        -0.109738     -0.650911     -0.264142
Ni	      8.11103      9.62964     -5.80279        -0.216086      0.280456      0.541442
Ni	      1.98060      3.86458     -1.95471        -0.619854     -0.255400      0.155561
Ni	      1.99224      7.75067     -5.84295        -0.610293     -1.061383      0.320642
Ni	     10.12747      5.77800     -3.88054        -0.128656     -1.295858     -1.446343
Ni	     10.13252      9.66202     -7.75033        -0.276679     -0.254551     -1.531827
Ni	      1.96985      5.78460     -0.05478        -0.710538      0.737422      0.845620
Ni	      2.04180      9.63839     -3.90775        -0.560077      0.436820      1.758029
Ni	     10.13091      7.69557     -1.96665         0.089515      0.477650      0.167823
Ni	     10.14393     11.56210     -5.84169        -0.634281      0.805780      1.045521
Ni	      3.98656      3.87304     -3.87196         0.021567     -1.666155     -1.619175
Ni	      4.02531      7.73367     -7.73598         0.101571     -1.353551     -1.830614
Ni	     12.17486      9.58133     -1.95846         0.295381      1.653394      1.682451
Ni	     12.14073     13.47046     -5.84383        -0.104267      1.598575      0.897683
Ni	      3.98598      5.77922     -1.96396        -0.001812      0.364501      0.474765
Ni	      4.02484      9.64232     -5.82569         0.029648      0.621192      0.229946
Ni	     12.15200      7.69287     -3.86113         0.000837     -0.337237     -0.339408
Ni	     12.14670     11.57022     -7.76268        -0.281352      0.282494     -0.999916
Ni	      6.03823      5.80434     -3.89868         0.403421     -1.291530     -1.837487
Ni	      6.05186      9.67033     -7.76311         0.331950      1.569207     -3.020139
Ni	     14.19218      7.70786     -5.81570         0.288747     -1.539770     -0.151796
Ni	     14.15500     11.48157     -9.57658        -0.119835      1.584924     -2.250896
Ni	      6.03280      7.71486     -1.98753        -0.207530      0.657667      0.236622
Ni	      6.05081     11.58060     -5.85124         0.063345      3.347676     -2.042662
Ni	     14.17447      9.67345     -3.94052         0.399856      1.143404      1.343382
Ni	     14.12927     13.35695     -7.64742         0.158850      2.154519     -0.606248
O	      4.00118      3.96127     -2.05063         0.547385     -1.252606      0.927664
O	      4.02916      7.82307     -5.91678         0.537343     -1.193075      0.853298
O	     12.14757      5.76137     -3.94354         0.058982     -1.413792      0.196120
O	     12.05928      9.77180     -7.78687         0.147254     -1.340552     -0.034993
O	      3.95171      5.86356     -0.13037         0.575710     -0.041720      1.450517
O	      4.01142      9.71976     -3.99308         0.467978      0.051999      1.202118
O	     12.24849      7.74833     -1.94527         0.449342     -1.378342      1.226221
O	     12.09816     11.58593     -5.95871         0.650461     -0.981287      1.486186
O	      6.03214      7.79708     -0.16598        -0.002350      0.047666      1.566485
O	      6.06365     11.66362     -4.02899         0.021673     -0.460022      1.134887
O	     14.24751      5.88249     -5.77312         0.358952     -1.322967     -0.678110
O	     14.20522      9.64566     -9.62538         0.037821     -2.053398     -0.034315
O	      6.03324      5.89302     -2.07224        -0.002895     -1.229224      0.944298
O	      6.06512      9.75763     -5.93580         0.042281     -1.615250      0.793588
O	     14.22408      7.67616     -3.98024        -0.299387     -0.298815      0.945266
O	     14.22506     11.50805     -7.74152        -0.068623     -1.266289      1.880130
O	      4.06260      5.70056     -3.79562        -0.172907      0.797246     -1.101442
O	      4.09399      9.56520     -7.65565        -0.287543      1.099017     -1.338587
O	     12.35032      7.59154     -5.76211        -1.001723      0.055473     -1.193068
O	     12.28378     11.58776     -9.61473        -1.298319      0.524219     -1.363749
O	      3.99400      7.59622     -1.86904        -0.543881      1.367898      0.012755
O	      4.03479     11.46208     -5.73259        -0.540122      1.785043     -0.335490
O	     12.25675      9.57858     -3.76454        -0.598946      0.997895     -0.970687
O	     12.29061     13.41324     -7.77429        -1.285434      1.503739     -1.221719
O	      6.05760      1.83965     -1.84027        -0.028474     -1.426292      0.899512
O	      6.04997      9.52391     -1.88807         0.039792      1.609313      0.105823
O	     14.19728      7.73309     -7.57517         0.193748     -0.060415     -2.130697
O	      6.05666      3.75323      0.07456        -0.002318     -0.503495      1.441426
O	      6.05091      7.61755     -3.79620         0.067824      0.990236     -1.309570
O	     14.16773      9.46352     -5.81795         0.175332      2.179531     -0.664051
O	      8.06817      3.94704     -2.04704         0.190310     -1.623997      0.119049
O	      8.09755      7.81099     -5.90007        -0.152179     -1.296700      0.948011
O	     16.06893      7.68380     -1.96522         1.458914     -0.615750      1.096732
O	      0.03273      7.73981     -2.01534        -1.161930     -1.737209      1.812389
O	      8.04189      5.85412     -0.13429         0.090804     -1.134240      1.488841
O	      8.09163      9.73212     -3.99475         0.090614     -0.020960      1.420179
O	      1.90469      3.85143     -0.14065        -0.586587     -0.745914      1.740663
O	      1.87381      7.73588     -4.04503        -0.605526     -0.358211      1.036613
O	     10.07114      5.88436     -2.01108         0.506928     -1.507581      1.516073
O	     10.09548      9.75497     -5.89386         0.593091     -1.035910      1.124202
O	      1.91153      2.05074     -1.94822         0.292898     -1.883932      0.185482
O	      1.87522      5.95439     -5.82879        -0.535149     -1.309615     -0.457575
O	     10.06111      7.72665     -0.15266         0.454510     -0.484062      1.658998
O	     10.12073      7.86030     -7.81321         0.509029     -1.393037      0.171083
O	     16.02345      7.66728     -5.76094         1.698650      0.290112     -1.038560
O	     15.96733     11.72297     -9.82484         1.729182      0.062027     -0.587929
O	      8.08960      5.67634     -3.77158        -0.101752     -0.033926     -1.426677
O	      8.10073      9.54293     -7.62794        -0.202729      1.078567     -1.339457
O	     16.13023      9.62318     -3.90317         0.677520      1.162503     -1.420913
O	     15.97211     13.54459     -7.82386         1.487066      1.943796     -1.544307
O	      8.07594      7.59059     -1.86420         0.039652      1.119841     -0.946276
O	      8.09526     11.45766     -5.71786         0.036497      1.544302     -0.218768
O	      1.98390      3.87342     -3.74975        -0.837493     -0.295692     -1.343682
O	      2.04162      7.73204     -7.64728        -1.002277      0.221360     -1.873013
O	     10.18722      9.50865     -1.92462        -0.532070      1.328735     -0.278825
O	     10.13111     13.37274     -5.78928        -0.693362      1.506806     -0.445728
O	      1.98494      5.65825     -1.95904        -0.886171      1.147143     -0.648076
O	      2.04173      9.55399     -5.82199        -1.036057      1.780323     -0.983814
O	     10.18677      7.64898     -3.77960        -0.516959      1.246364     -1.197807
O	     10.11450     11.47144     -7.69742        -0.678558      1.288367     -1.505563
