# total energy = -587.87082204 eV
 
CRYSTAL
PRIMVEC
-0.001759 3.938255 3.941257 
16.671473 3.981921 -3.992443 
-0.005289 7.969979 -7.975698 
PRIMCOORD
124 1
Li	      8.14130      5.83235      1.87786        -0.048950     -0.057354      0.250359
Li	      8.14918      9.74246     -2.03794         0.074234      0.152021      0.025841
Li	      0.22303     11.52782     -4.02750        -0.885838      0.062078      0.078667
Li	     16.31745     11.54474     -4.02719         0.295450      0.551226      0.012701
Li	      8.13800      3.90765     -0.04991        -0.081922     -0.240882      0.125584
Li	      8.15742      7.82451     -3.95615         0.057326      0.019347     -0.087250
Li	      0.22483      9.81591     -5.74005        -0.980972     -0.027092     -0.012313
Li	     16.31174      9.80651     -5.76464         0.387223     -0.010528     -0.422260
Li	      2.28232      1.96944     -0.03746        -0.175419     -0.229492      0.216199
Li	      2.23347      5.88082     -3.95429        -0.541862      0.059962     -0.155238
Li	     10.11869      3.87265     -1.94680         0.283768     -0.256845      0.107812
Li	     10.14727      7.79285     -5.87298         0.228303     -0.149083      0.011575
Li	      2.01964      3.88659      1.90295         0.149064     -0.159973      0.102118
Li	      1.92863      7.77086     -1.98201        -0.075599      0.144801     -0.019202
Li	     10.09841      5.80287     -0.02087         0.285041     -0.202388      0.325655
Li	     10.22446      9.72972     -3.94151        -0.046367      0.090991      0.081559
Li	      4.10716      5.81759      1.88995         0.132516     -0.038659      0.190927
Li	      4.11284      9.72558     -2.01193        -0.177200      0.091061      0.067062
Li	     12.02457      7.71825     -0.02916         0.293897     -0.103583      0.344405
Li	     12.30214     11.64534     -3.94309        -0.047336      0.237327      0.127239
Li	      4.10862      3.90084     -0.02748         0.127500     -0.157243      0.133523
Li	      4.11593      7.80119     -3.93820        -0.178498      0.009410     -0.021666
Li	     12.02549      5.80112     -1.92822         0.401668     -0.326609      0.192008
Li	     12.30783      9.75705     -5.90023        -0.054329     -0.177095      0.027046
Li	      6.13840      3.86647     -1.93923         0.011923     -0.298121      0.155143
Li	      6.15691      7.76966     -5.84347        -0.019695     -0.185895     -0.000057
Li	     14.02827      6.01155     -4.09357         0.489853     -0.627658      0.350263
Li	     14.05510      9.68541     -7.75894         0.100124     -0.118674     -0.089859
Li	      6.14256      5.79709     -0.00875        -0.151328     -0.154905      0.286655
Li	      6.14631      9.70185     -3.91467        -0.019588      0.109403      0.105281
Li	     14.33561      7.96746     -2.18164         0.223521      0.064911      0.559829
Li	     14.40034     11.64551     -5.87090        -0.230700     -0.048025      0.251734
Ni	      0.00396      5.78243      1.84935        -1.299439     -0.237090      2.108667
Ni	     16.31002     13.63427     -6.00927         1.670122      1.716765      1.014881
Ni	      8.16733      7.74621     -0.03740        -0.119299      1.106093      1.390171
Ni	      8.19586      7.79819     -7.79604        -0.111670     -1.342221     -1.179480
Ni	     16.33187      7.84411     -3.90477         1.322415     -1.136263      0.003804
Ni	     16.31785     11.78748     -7.85693         1.963059     -0.810962     -1.459701
Ni	      8.16906      5.82159     -1.96488        -0.076138     -0.511604     -0.200157
Ni	      8.19443      9.72866     -5.86247        -0.124467      0.206718      0.410627
Ni	      2.00096      3.90433     -1.97481        -0.497346     -0.214361      0.147350
Ni	      2.01271      7.83037     -5.90303        -0.501379     -0.835279      0.265208
Ni	     10.23159      5.83741     -3.92045        -0.097037     -0.981927     -1.094629
Ni	     10.23671      9.76138     -7.83002        -0.218024     -0.198374     -1.176188
Ni	      1.99011      5.84408     -0.05535        -0.592722      0.525250      0.640360
Ni	      2.06279      9.73750     -3.94794        -0.446620      0.305336      1.368762
Ni	     10.23508      7.77470     -1.98687         0.083742      0.375870      0.123377
Ni	     10.24824     11.68098     -5.90176        -0.486344      0.633140      0.780116
Ni	      4.02755      3.91287     -3.91178         0.011845     -1.279946     -1.242924
Ni	      4.06670      7.81319     -7.81553         0.055904     -1.027031     -1.404744
Ni	     12.30004      9.67986     -1.97860         0.245149      1.269543      1.319840
Ni	     12.26557     13.60897     -5.90392        -0.101702      1.228626      0.685021
Ni	      4.02698      5.83865     -1.98416        -0.011676      0.284815      0.364418
Ni	      4.06622      9.74148     -5.88560        -0.006109      0.481697      0.165095
Ni	     12.27695      7.77197     -3.90083        -0.013954     -0.274966     -0.264191
Ni	     12.27160     11.68919     -7.84250        -0.226593      0.209852     -0.778052
Ni	      6.10033      5.86403     -3.93877         0.320756     -0.976080     -1.415989
Ni	      6.11409      9.76977     -7.84293         0.268706      1.337728     -2.479290
Ni	     14.33812      7.78712     -5.87551         0.260081     -1.218839     -0.116344
Ni	     14.30055     11.59963     -9.67505        -0.116456      1.269329     -1.789133
Ni	      6.09485      7.79419     -2.00798        -0.153780      0.511754      0.171756
Ni	      6.11303     11.69967     -5.91141         0.056621      2.739447     -1.654306
Ni	     14.32023      9.77293     -3.98105         0.325004      0.867121      1.030908
Ni	     14.27455     13.49429     -7.72605         0.134203      1.716892     -0.529882
O	      4.04231      4.00200     -2.07172         0.451793     -0.958935      0.728933
O	      4.07059      7.90351     -5.97762         0.432296     -0.909019      0.672763
O	     12.27249      5.82062     -3.98410         0.058911     -1.119420      0.187039
O	     12.18328      9.87228     -7.86693         0.160793     -1.021714      0.001616
O	      3.99235      5.92385     -0.13172         0.478855     -0.071311      1.111870
O	      4.05266      9.81970     -4.03413         0.389274      0.013792      0.920995
O	     12.37444      7.82801     -1.96528         0.337406     -1.065410      0.996146
O	     12.22256     11.70507     -6.01998         0.524626     -0.779144      1.142511
O	      6.09417      7.87725     -0.16769        -0.002516      0.008359      1.214052
O	      6.12599     11.78356     -4.07043         0.016970     -0.346666      0.881824
O	     14.39400      5.94298     -5.83248         0.328225     -0.999837     -0.534568
O	     14.35128      9.74484     -9.72435         0.032573     -1.649655      0.009538
O	      6.09528      5.95362     -2.09355         0.000273     -0.950774      0.741022
O	      6.12748      9.85797     -5.99684         0.032706     -1.225171      0.534948
O	     14.37035      7.75508     -4.02117        -0.243736     -0.241785      0.717969
O	     14.37134     11.62639     -7.82113        -0.048901     -1.017930      1.515748
O	      4.10437      5.75918     -3.83465        -0.135807      0.638908     -0.835647
O	      4.13608      9.66356     -7.73438        -0.248540      0.855922     -1.030546
O	     12.47732      7.66961     -5.82136        -0.746148      0.048778     -0.972209
O	     12.41008     11.70691     -9.71360        -1.021998      0.449515     -1.062090
O	      4.03507      7.67433     -1.88826        -0.417034      1.047377     -0.011327
O	      4.07628     11.57995     -5.79153        -0.416366      1.378510     -0.292191
O	     12.38277      9.67707     -3.80324        -0.443398      0.803406     -0.779554
O	     12.41699     13.55116     -7.85423        -1.015034      1.164520     -0.972072
O	      6.11988      1.85856     -1.85920        -0.014091     -1.241213      0.839754
O	      6.11219      9.62185     -1.90749         0.033269      1.246135      0.056030
O	     14.34328      7.81262     -7.65307         0.157449     -0.003616     -1.660831
O	      6.11894      3.79182      0.07532        -0.002587     -0.491226      1.218470
O	      6.11313      7.69588     -3.83524         0.050411      0.785697     -1.009631
O	     14.31340      9.56083     -5.87777         0.138314      1.696295     -0.506615
O	      8.15114      3.98763     -2.06809         0.142049     -1.254234      0.121030
O	      8.18081      7.89130     -5.96074        -0.136178     -0.998303      0.744264
O	     16.23416      7.76281     -1.98543         1.175475     -0.552904      0.866176
O	      0.03307      7.81940     -2.03607        -1.029940     -1.439441      1.470050
O	      8.12458      5.91432     -0.13567         0.060028     -0.902615      1.154013
O	      8.17483      9.83219     -4.03583         0.050248     -0.044860      1.109673
O	      1.92427      3.89103     -0.14209        -0.531080     -0.572173      1.351286
O	      1.89307      7.81542     -4.08662        -0.583405     -0.292395      0.810076
O	     10.17469      5.94487     -2.03176         0.394839     -1.163664      1.203637
O	     10.19929      9.85528     -5.95446         0.459184     -0.794308      0.924979
O	      1.93118      2.07182     -1.96825         0.285797     -1.464743      0.168783
O	      1.89450      6.01562     -5.88872        -0.530835     -1.021209     -0.336493
O	     10.16458      7.80611     -0.15423         0.353968     -0.427807      1.275639
O	     10.22481      7.94112     -7.89356         0.395106     -1.070281      0.163215
O	     16.18822      7.74612     -5.82018         1.289399      0.328320     -0.813982
O	     16.13151     11.84351     -9.92586         1.412414      0.052012     -0.454854
O	      8.17279      5.73471     -3.81036        -0.096051     -0.003979     -1.093327
O	      8.18402      9.64106     -7.70638        -0.170247      0.841260     -1.022061
O	     16.29611      9.72214     -3.94331         0.578763      0.944976     -1.246363
O	     16.13634     13.68386     -7.90431         1.198106      1.557334     -1.245752
O	      8.15899      7.66864     -1.88337         0.015266      0.853602     -0.737820
O	      8.17849     11.57547     -5.77666         0.013024      1.199088     -0.196144
O	      2.00430      3.91324     -3.78831        -0.687542     -0.222278     -1.041841
O	      2.06260      7.81154     -7.72592        -0.811629      0.204021     -1.451679
O	     10.29197      9.60642     -1.94441        -0.420878      1.016673     -0.265120
O	     10.23529     13.51026     -5.84882        -0.546221      1.173937     -0.403878
O	      2.00536      5.71643     -1.97919        -0.714064      0.890187     -0.510040
O	      2.06273      9.65223     -5.88185        -0.837917      1.370609     -0.783459
O	     10.29151      7.72764     -3.81846        -0.409666      0.987519     -0.924222
O	     10.21851     11.58940     -7.77657        -0.528659      0.997805     -1.186422
