# total energy = -591.46298114 eV
 
CRYSTAL
PRIMVEC
-0.001768 3.958348 3.961366 
16.756532 4.002237 -4.012813 
-0.005316 8.010642 -8.016390 
PRIMCOORD
124 1
Li	      8.22459      5.89201      1.89707        -0.018934     -0.042096      0.181554
Li	      8.23254      9.84212     -2.05879         0.057873      0.114786      0.009546
Li	      0.22531     11.64575     -4.06870        -0.673871      0.044206      0.047120
Li	     16.48438     11.66284     -4.06838         0.241158      0.403278      0.007054
Li	      8.22125      3.94763     -0.05042        -0.042101     -0.173706      0.087018
Li	      8.24088      7.90456     -3.99663         0.044720      0.021752     -0.070070
Li	      0.22712      9.91632     -5.79877        -0.724490     -0.002197      0.005642
Li	     16.47861      9.90683     -5.82362         0.299136     -0.009312     -0.301068
Li	      2.30566      1.98959     -0.03784        -0.145298     -0.167192      0.151597
Li	      2.25633      5.94097     -3.99474        -0.410387      0.046175     -0.115646
Li	     10.22221      3.91227     -1.96671         0.217656     -0.196945      0.084242
Li	     10.25107      7.87257     -5.93307         0.171200     -0.104530      0.009347
Li	      2.04030      3.92635      1.92241         0.104728     -0.116684      0.076480
Li	      1.94836      7.85035     -2.00228        -0.058226      0.101015     -0.014023
Li	     10.20172      5.86224     -0.02109         0.212552     -0.147253      0.242016
Li	     10.32905      9.82925     -3.98184        -0.034531      0.060769      0.058962
Li	      4.14918      5.87710      1.90929         0.074249     -0.029822      0.145941
Li	      4.15493      9.82507     -2.03252        -0.137980      0.069158      0.044776
Li	     12.14759      7.79721     -0.02946         0.219275     -0.084963      0.257030
Li	     12.42800     11.76448     -3.98343        -0.036908      0.169439      0.096185
Li	      4.15065      3.94075     -0.02775         0.071391     -0.116706      0.097343
Li	      4.15804      7.88100     -3.97849        -0.138034      0.009564     -0.019854
Li	     12.14851      5.86047     -1.94795         0.297767     -0.243391      0.145964
Li	     12.43374      9.85686     -5.96059        -0.045593     -0.126227      0.018409
Li	      6.20118      3.90603     -1.95907         0.008842     -0.220889      0.114662
Li	      6.21988      7.84914     -5.90325        -0.011913     -0.147058      0.017200
Li	     14.17179      6.07305     -4.13545         0.365872     -0.467306      0.256828
Li	     14.19887      9.78449     -7.83831         0.061315     -0.095184     -0.057643
Li	      6.20541      5.85639     -0.00884        -0.111320     -0.106006      0.207565
Li	      6.20919      9.80111     -3.95473        -0.014615      0.062555      0.088680
Li	     14.48227      8.04897     -2.20397         0.172073      0.050585      0.420047
Li	     14.54765     11.76465     -5.93096        -0.157511     -0.048233      0.191882
Ni	      0.00402      5.84158      1.86827        -1.110241     -0.202880      1.674419
Ni	     16.47687     13.77375     -6.07074         1.401965      1.324574      0.771645
Ni	      8.25088      7.82545     -0.03778        -0.079576      0.784452      1.005782
Ni	      8.27969      7.87797     -7.87580        -0.052684     -0.966175     -0.835886
Ni	     16.49895      7.92436     -3.94472         1.079625     -0.867068     -0.021076
Ni	     16.48478     11.90807     -7.93731         1.595462     -0.614210     -1.122584
Ni	      8.25263      5.88114     -1.98498        -0.046085     -0.379061     -0.138083
Ni	      8.27825      9.82819     -5.92244        -0.066362      0.136104      0.290939
Ni	      2.02143      3.94427     -1.99502        -0.389658     -0.174054      0.130437
Ni	      2.03332      7.91048     -5.96342        -0.400068     -0.619968      0.196746
Ni	     10.33626      5.89713     -3.96056        -0.068560     -0.703195     -0.775530
Ni	     10.34143      9.86124     -7.91012        -0.170819     -0.149105     -0.844053
Ni	      2.01047      5.90386     -0.05591        -0.483557      0.345251      0.465534
Ni	      2.08389      9.83711     -3.98832        -0.350742      0.194129      0.999855
Ni	     10.33980      7.85424     -2.00720         0.081471      0.278573      0.089044
Ni	     10.35308     11.80048     -5.96213        -0.351293      0.462015      0.553378
Ni	      4.06875      3.95290     -3.95180        -0.001439     -0.928569     -0.888609
Ni	      4.10831      7.89312     -7.89548         0.021000     -0.730553     -1.014204
Ni	     12.42589      9.77889     -1.99884         0.185729      0.906343      0.970640
Ni	     12.39104     13.74819     -5.96432        -0.086769      0.884830      0.483437
Ni	      4.06817      5.89837     -2.00445        -0.025150      0.199985      0.266347
Ni	      4.10782      9.84113     -5.94581        -0.021967      0.353442      0.102637
Ni	     12.40254      7.85148     -3.94074        -0.018739     -0.212757     -0.191307
Ni	     12.39713     11.80877     -7.92272        -0.168035      0.155063     -0.577188
Ni	      6.16274      5.92402     -3.97907         0.243457     -0.684149     -1.032924
Ni	      6.17665      9.86972     -7.92318         0.208784      1.050786     -1.933927
Ni	     14.48480      7.86679     -5.93561         0.214083     -0.896664     -0.087445
Ni	     14.44685     11.71829     -9.77403        -0.116094      0.975075     -1.360656
Ni	      6.15719      7.87393     -2.02852        -0.106082      0.385476      0.110460
Ni	      6.17557     11.81936     -5.97189         0.040689      2.127233     -1.273715
Ni	     14.46673      9.87291     -4.02177         0.243951      0.627966      0.735639
Ni	     14.42059     13.63234     -7.80510         0.103615      1.305162     -0.450437
O	      4.08367      4.04294     -2.09291         0.364314     -0.694945      0.553336
O	      4.11223      7.98437     -6.03877         0.337224     -0.661967      0.518241
O	     12.39803      5.88016     -4.02486         0.059373     -0.846231      0.169660
O	     12.30792      9.97327     -7.94741         0.157234     -0.748942      0.041406
O	      4.03318      5.98445     -0.13306         0.389602     -0.092403      0.808928
O	      4.09412      9.92016     -4.07541         0.312874     -0.023369      0.674039
O	     12.50102      7.90809     -1.98538         0.245221     -0.786535      0.769821
O	     12.34762     11.82481     -6.08157         0.407184     -0.603066      0.843273
O	      6.15651      7.95783     -0.16939         0.002110     -0.023333      0.889609
O	      6.18867     11.90411     -4.11207         0.007136     -0.217230      0.672153
O	     14.54126      6.00378     -5.89215         0.287261     -0.719430     -0.383287
O	     14.49810      9.84453     -9.82383         0.025630     -1.259099      0.054192
O	      6.15763      6.01452     -2.11496         0.003069     -0.703001      0.559564
O	      6.19017      9.95882     -6.05819         0.022240     -0.856753      0.384764
O	     14.51735      7.83442     -4.06230        -0.192189     -0.189734      0.522880
O	     14.51835     11.74533     -7.90114        -0.031014     -0.780226      1.158001
O	      4.14636      5.81809     -3.87387        -0.112439      0.488710     -0.606872
O	      4.17840      9.76242     -7.81350        -0.213332      0.648646     -0.753992
O	     12.60496      7.74807     -5.88092        -0.525562      0.060206     -0.758091
O	     12.53704     11.82667     -9.81298        -0.765435      0.368601     -0.793254
O	      4.07635      7.75284     -1.90758        -0.301920      0.759829     -0.037975
O	      4.11798     11.69841     -5.85078        -0.302380      1.006396     -0.245930
O	     12.50945      9.77607     -3.84215        -0.317007      0.623341     -0.599127
O	     12.54402     13.68979     -7.93458        -0.777162      0.862701     -0.745302
O	      6.18249      1.87757     -1.87821        -0.007970     -1.015945      0.675813
O	      6.17471      9.72027     -1.92700         0.018699      0.912850      0.008676
O	     14.49000      7.89254     -7.73136         0.120228      0.032915     -1.220448
O	      6.18154      3.83062      0.07609        -0.002503     -0.460292      0.944863
O	      6.17567      7.77461     -3.87446         0.031969      0.600330     -0.742338
O	     14.45984      9.65865     -5.93791         0.098838      1.252899     -0.370235
O	      8.23453      4.02842     -2.08924         0.091559     -0.925295      0.122576
O	      8.26451      7.97203     -6.02172        -0.111823     -0.723546      0.560540
O	     16.40024      7.84223     -2.00574         0.882609     -0.486879      0.652086
O	      0.03340      7.89939     -2.05690        -0.855476     -1.094320      1.111316
O	      8.20770      5.97482     -0.13706         0.031856     -0.688862      0.852043
O	      8.25845      9.93278     -4.07711         0.022077     -0.067593      0.819663
O	      1.94396      3.93084     -0.14355        -0.452917     -0.429903      0.999692
O	      1.91244      7.89537     -4.12842        -0.527693     -0.236876      0.612339
O	     10.27879      6.00569     -2.05254         0.288608     -0.860680      0.923889
O	     10.30364      9.95609     -6.01537         0.340976     -0.586269      0.714807
O	      1.95093      2.09302     -1.98839         0.273092     -1.077558      0.162157
O	      1.91387      6.07716     -5.94896        -0.487974     -0.764961     -0.211250
O	     10.26857      7.88596     -0.15581         0.262340     -0.375020      0.939756
O	     10.32940      8.02236     -7.97431         0.295299     -0.783226      0.151861
O	     16.35383      7.82536     -5.87972         0.923329      0.336294     -0.605375
O	     16.29653     11.96467    -10.02740         1.105380      0.042353     -0.340785
O	      8.25640      5.79337     -3.84934        -0.087542      0.025189     -0.800572
O	      8.26774      9.73969     -7.78522        -0.120875      0.624484     -0.738862
O	     16.46282      9.82160     -3.98365         0.477271      0.739681     -1.002396
O	     16.30142     13.82385     -7.98518         0.914434      1.183203     -0.954427
O	      8.24246      7.74709     -1.90264         0.005529      0.626675     -0.555243
O	      8.26216     11.69389     -5.83575        -0.005903      0.883424     -0.172952
O	      2.02480      3.95328     -3.82706        -0.538821     -0.142509     -0.774309
O	      2.08371      7.89145     -7.80495        -0.622854      0.186347     -1.064617
O	     10.39725      9.70469     -1.96430        -0.311104      0.746165     -0.249557
O	     10.34000     13.64846     -5.90864        -0.414711      0.868828     -0.350664
O	      2.02588      5.77492     -1.99944        -0.542557      0.669601     -0.401942
O	      2.08383      9.75097     -5.94202        -0.636743      1.003243     -0.602496
O	     10.39681      7.80669     -3.85753        -0.308567      0.753449     -0.678834
O	     10.32305     11.70796     -7.85613        -0.394096      0.744002     -0.894908
