# total energy = -595.82423325 eV
 
CRYSTAL
PRIMVEC
-0.001786 3.998534 4.001583 
16.926649 4.042869 -4.053552 
-0.005370 8.091968 -8.097775 
PRIMCOORD
124 1
Li	      8.39243      6.01225      1.93578         0.005910      0.001635      0.039539
Li	      8.40054     10.04298     -2.10080         0.026689      0.046875     -0.006713
Li	      0.22991     11.88342     -4.15174        -0.218516      0.018460     -0.004771
Li	     16.82078     11.90085     -4.15141         0.111610      0.138248     -0.008824
Li	      8.38902      4.02819     -0.05145         0.006796     -0.038113      0.006929
Li	      8.40906      8.06587     -4.07818         0.017851      0.017421     -0.034978
Li	      0.23177     10.11869     -5.91711        -0.225932      0.024555      0.004117
Li	     16.81490     10.10900     -5.94246         0.126533      0.005664     -0.104011
Li	      2.35272      2.03020     -0.03862        -0.069360     -0.044923      0.037299
Li	      2.30237      6.06222     -4.07627        -0.156202      0.017815     -0.033993
Li	     10.43083      3.99211     -2.00685         0.079460     -0.063039      0.022591
Li	     10.46028      8.03323     -6.05414         0.076192     -0.043910      0.017947
Li	      2.08194      4.00647      1.96165         0.035407     -0.038380      0.030883
Li	      1.98812      8.01055     -2.04314        -0.008506      0.024466     -0.005371
Li	     10.40991      5.98187     -0.02152         0.074558     -0.041744      0.068967
Li	     10.53985     10.02984     -4.06310        -0.013619      0.008236      0.029490
Li	      4.23385      5.99704      1.94825         0.002034     -0.007660      0.048893
Li	      4.23971     10.02557     -2.07399        -0.052336      0.026516      0.004413
Li	     12.39549      7.95633     -0.03006         0.076290     -0.034430      0.100108
Li	     12.68163     12.00456     -4.06473        -0.018505      0.047222      0.037889
Li	      4.23536      4.02117     -0.02832         0.004425     -0.033357      0.029404
Li	      4.24290      8.04183     -4.05968        -0.050056      0.010029     -0.015460
Li	     12.39644      5.98006     -1.98770         0.099924     -0.082933      0.046975
Li	     12.68749     10.05802     -6.08223        -0.024118     -0.036531      0.010084
Li	      6.32774      3.98574     -1.99905         0.002471     -0.082689      0.047843
Li	      6.34682      8.00932     -6.02372        -0.008894     -0.058210      0.023742
Li	     14.46100      6.19699     -4.21984         0.113980     -0.175729      0.110257
Li	     14.48864      9.98417     -7.99827        -0.002178     -0.053905      0.006977
Li	      6.33204      5.97591     -0.00902        -0.032920     -0.041949      0.076839
Li	      6.33591     10.00113     -4.03543        -0.007765      0.003840      0.041749
Li	     14.77781      8.21322     -2.24894         0.047146     -0.002390      0.155929
Li	     14.84453     12.00473     -6.05200        -0.049969     -0.037613      0.081279
Ni	      0.00409      5.96080      1.90640        -0.461440     -0.083047      0.719576
Ni	     16.81312     14.05483     -6.19463         0.626234      0.459414      0.369787
Ni	      8.41926      7.98515     -0.03855        -0.025017      0.212849      0.340078
Ni	      8.44867      8.03874     -8.03652        -0.017527     -0.323811     -0.216591
Ni	     16.83565      8.08607     -4.02523         0.476126     -0.429252     -0.023234
Ni	     16.82118     12.15109     -8.09929         0.673307     -0.323944     -0.401011
Ni	      8.42104      6.00116     -2.02549        -0.005350     -0.156749     -0.022301
Ni	      8.44720     10.02876     -6.04330        -0.032322      0.005949      0.115205
Ni	      2.06269      4.02477     -2.03573        -0.191938     -0.078480      0.065702
Ni	      2.07480      8.07190     -6.08512        -0.176204     -0.196823      0.063278
Ni	     10.54721      6.01747     -4.04138        -0.024606     -0.217584     -0.228542
Ni	     10.55248     10.06248     -8.07155        -0.075195     -0.049404     -0.250117
Ni	      2.05150      6.02435     -0.05705        -0.213190      0.079918      0.143472
Ni	      2.12642     10.03786     -4.06971        -0.157906      0.030409      0.317997
Ni	     10.55080      8.01452     -2.04816         0.053788      0.085498      0.019511
Ni	     10.56436     12.04130     -6.08381        -0.107759      0.136015      0.169520
Ni	      4.15180      4.03357     -4.03245        -0.008453     -0.289068     -0.272965
Ni	      4.19215      8.05421     -8.05662        -0.013891     -0.215040     -0.322594
Ni	     12.67947      9.97845     -2.03963         0.043034      0.266416      0.344782
Ni	     12.64393     14.02877     -6.08604        -0.044246      0.279268      0.134163
Ni	      4.15118      6.01875     -2.04535        -0.020609      0.060613      0.081906
Ni	      4.19165     10.04196     -6.06715        -0.022182      0.116424      0.020104
Ni	     12.65565      8.01171     -4.02116        -0.033698     -0.095498     -0.053298
Ni	     12.65014     12.04975     -8.08442        -0.060558      0.062706     -0.216888
Ni	      6.28850      6.04491     -4.06027         0.105985     -0.174266     -0.350269
Ni	      6.30269     10.07114     -8.08486         0.095576      0.406607     -0.712514
Ni	     14.78039      8.02733     -6.05674         0.059676     -0.254820     -0.055657
Ni	     14.74167     11.95743     -9.97350        -0.117414      0.446375     -0.580040
Ni	      6.28285      8.03461     -2.06991        -0.024703      0.149074     -0.004510
Ni	      6.30160     12.06057     -6.09375         0.026129      0.798137     -0.484686
Ni	     14.76196     10.07438     -4.10385         0.079006      0.204690      0.196802
Ni	     14.71487     13.91055     -7.96438         0.024572      0.555161     -0.296051
O	      4.16700      4.12545     -2.13562         0.180072     -0.268952      0.254640
O	      4.19614      8.14731     -6.16200         0.149373     -0.263947      0.243970
O	     12.65105      6.00016     -4.10700         0.083006     -0.337559      0.146096
O	     12.55908     10.17680     -8.10960         0.109692     -0.323941      0.119684
O	      4.11550      6.10658     -0.13578         0.182809     -0.124389      0.307948
O	      4.17768     10.12260     -4.15857         0.178298     -0.084740      0.268051
O	     12.75614      8.06947     -2.02590         0.105674     -0.327701      0.347313
O	     12.59960     12.06613     -6.20568         0.186346     -0.313536      0.358053
O	      6.28216      8.12024     -0.17286        -0.007249     -0.091498      0.338709
O	      6.31496     12.14704     -4.19598         0.010888     -0.103505      0.302218
O	     14.83801      6.12630     -6.01239         0.135315     -0.290769     -0.082362
O	     14.79398     10.04544    -10.02431         0.016619     -0.520780      0.144086
O	      6.28329      6.13727     -2.15813        -0.008519     -0.285068      0.254487
O	      6.31651     10.16206     -6.18183         0.016078     -0.303969      0.214262
O	     14.81361      7.99430     -4.14520        -0.070778     -0.099802      0.230657
O	     14.81465     11.98502     -8.06238        -0.013518     -0.364162      0.487304
O	      4.23098      5.93683     -3.95293        -0.068486      0.241002     -0.251936
O	      4.26367      9.96165     -7.97295        -0.120837      0.285383     -0.297372
O	     12.86220      7.90619     -6.00094        -0.214361      0.097967     -0.336938
O	     12.79289     12.06803    -10.01324        -0.299800      0.218277     -0.326604
O	      4.15954      7.91106     -1.94651        -0.113309      0.291725     -0.090247
O	      4.20202     11.93715     -5.97018        -0.116382      0.375731     -0.158489
O	     12.76475      9.97557     -3.92056        -0.114216      0.309587     -0.306500
O	     12.80002     13.96917     -8.09650        -0.335060      0.340267     -0.325212
O	      6.30866      1.91589     -1.91654         0.004536     -0.350493      0.155305
O	      6.30073      9.91865     -1.96633         0.006914      0.351434     -0.094611
O	     14.78571      8.05361     -7.88914         0.055494      0.086999     -0.498645
O	      6.30769      3.90879      0.07764         0.007530     -0.140497      0.262129
O	      6.30170      7.93327     -3.95354         0.012429      0.280559     -0.304454
O	     14.75493      9.85575     -6.05908         0.039564      0.495673     -0.166314
O	      8.40256      4.11063     -2.13188         0.011943     -0.353167      0.124476
O	      8.43316      8.13472     -6.14461        -0.050754     -0.281598      0.255701
O	     16.73494      8.00228     -2.04668         0.292740     -0.250846      0.270054
O	      0.03408      8.06060     -2.09888        -0.360385     -0.385071      0.397624
O	      8.37520      6.09676     -0.13985        -0.002941     -0.297695      0.342188
O	      8.42698     10.13547     -4.16032        -0.004186     -0.107751      0.331078
O	      1.98362      4.01106     -0.14648        -0.176658     -0.223794      0.401492
O	      1.95148      8.05650     -4.21268        -0.237840     -0.174013      0.277260
O	     10.48856      6.12825     -2.09443         0.115997     -0.334904      0.437957
O	     10.51390     10.15927     -6.13813         0.142334     -0.256299      0.303578
O	      1.99075      2.13573     -2.02897         0.174816     -0.416232      0.172792
O	      1.95293      6.20118     -6.07037        -0.231212     -0.324790      0.040170
O	     10.47812      8.04690     -0.15899         0.110730     -0.260038      0.368283
O	     10.54019      8.18609     -8.13705         0.126282     -0.326501      0.126542
O	     16.68758      7.98506     -5.99971         0.387083      0.203392     -0.243832
O	     16.62911     12.20884    -10.23204         0.477328      0.041497     -0.139248
O	      8.42490      5.91160     -3.92789        -0.069050      0.089070     -0.308158
O	      8.43647      9.93845     -7.94409        -0.040729      0.273439     -0.295793
O	     16.79878     10.02203     -4.06494         0.189871      0.339253     -0.420209
O	     16.63409     14.10596     -8.14813         0.359110      0.458780     -0.382871
O	      8.41067      7.90519     -1.94147        -0.013781      0.256539     -0.244097
O	      8.43077     11.93254     -5.95485        -0.005219      0.343389     -0.133582
O	      2.06612      4.03395     -3.90516        -0.231149      0.045023     -0.337028
O	      2.12622      8.05249     -7.96423        -0.255028      0.184892     -0.405339
O	     10.60943      9.90274     -2.00438        -0.133706      0.300453     -0.227330
O	     10.55102     13.92700     -6.02923        -0.183232      0.359306     -0.193459
O	      2.06722      5.89277     -2.04025        -0.218175      0.308340     -0.238730
O	      2.12636      9.94996     -6.06328        -0.254709      0.385862     -0.311972
O	     10.60898      7.96601     -3.93625        -0.139385      0.362164     -0.281657
O	     10.53372     11.94689     -8.01645        -0.175841      0.320788     -0.357754
