# total energy = -596.59662351 eV
 
CRYSTAL
PRIMVEC
-0.001804 4.038720 4.041800 
17.096766 4.083501 -4.094291 
-0.005424 8.173294 -8.179159 
PRIMCOORD
124 1
Li	      8.56378      2.09499     -2.06691         0.026204      0.053113     -0.101420
Li	      8.57206      6.20713     -6.18504        -0.002346     -0.014746     -0.007991
Li	      0.23455     12.12347     -4.23560         0.245086      0.008550     -0.073283
Li	      0.06382      8.05777     -0.14098        -0.106875     -0.078424     -0.028671
Li	      8.55850      4.10956     -0.05248         0.031696      0.085241     -0.067845
Li	      8.57894      8.22881     -4.16057        -0.003905      0.007642      0.006953
Li	      0.23644     10.32310     -6.03664         0.233554      0.034351     -0.034234
Li	      0.05782      6.22972     -1.96822        -0.110712      0.026023      0.047483
Li	      2.40025      2.07121     -0.03940         0.034906      0.060046     -0.055792
Li	      2.34888      6.18469     -4.15862         0.092567     -0.008200      0.026920
Li	     10.64155      4.07276     -2.04739        -0.051952      0.080296     -0.057529
Li	     10.67159      8.19551     -6.17645        -0.002991     -0.000324      0.031325
Li	      2.12399      4.08741      2.00128         0.026770      0.027459     -0.029124
Li	      2.02828      8.17238     -2.08442         0.076113     -0.019099     -0.002136
Li	     10.62021      6.10272     -0.02196        -0.056277      0.054349     -0.093546
Li	     10.75276     10.23246     -4.14517         0.004469     -0.036136      0.004359
Li	      4.32118      2.07947     -2.05419        -0.026507      0.023929     -0.067362
Li	      4.32716      6.18939     -6.15768         0.031967     -0.011030     -0.032948
Li	     12.64771      4.07834     -4.07247        -0.054263      0.016611     -0.071731
Li	     12.93961      8.20836     -8.18864        -0.015328     -0.052702     -0.004231
Li	      4.32093      4.10241     -0.02890        -0.021533      0.045396     -0.038610
Li	      4.32860      8.20428     -4.14169         0.029300      0.016801     -0.004123
Li	     12.64686      6.10087     -2.02785        -0.077968      0.073027     -0.057871
Li	     12.94380     10.26121     -6.20511        -0.017085      0.030206      0.006089
Li	      6.45557      4.06625     -2.03943         0.000140      0.048202     -0.018957
Li	      6.47504      8.17112     -6.14541        -0.008756      0.019690      0.014647
Li	     14.75313      6.32218     -4.30510        -0.138736      0.090370     -0.000115
Li	     14.78133     10.18586     -8.15984        -0.043720     -0.007242      0.049794
Li	      6.45996      6.09662     -0.00920         0.038155      0.005767     -0.039678
Li	      6.46390     10.20316     -4.11695        -0.013172     -0.035314     -0.000237
Li	     15.07634      8.37915     -2.29437        -0.113471     -0.059448     -0.100291
Li	     15.14441     12.24725     -6.17426        -0.080411     -0.019715     -0.018234
Ni	      0.00417      6.08121      1.94491         0.745086      0.070618     -0.212328
Ni	      0.05602     10.25526     -2.22548        -0.730392     -0.367026      0.064215
Ni	      8.59115      4.10774     -4.08114         0.010515     -0.258379     -0.214315
Ni	      8.61935      8.20113     -8.19887        -0.027828      0.206486      0.324727
Ni	      0.07899      4.16592     -0.01225        -0.547273     -0.084572      0.056387
Ni	      0.06424      8.31305     -4.16861        -0.736913     -0.107848      0.299525
Ni	      8.59116      6.12239     -2.06640         0.018529      0.040329      0.076693
Ni	      8.61784     10.23135     -6.16539        -0.035494     -0.115864      0.002546
Ni	      2.10436      4.10606     -2.07685         0.077001      0.043434     -0.044339
Ni	      2.11671      8.23497     -6.20804         0.161640      0.215977     -0.095603
Ni	     10.76028      6.13903     -4.12302        -0.008657      0.174780      0.225165
Ni	     10.76565     10.26576     -8.23461         0.004905      0.039427      0.236686
Ni	      2.09294      6.14605     -0.05821         0.296101     -0.059630     -0.112131
Ni	      2.16938     10.24064     -4.15193         0.118959     -0.037349     -0.281996
Ni	     10.76394      8.17643     -2.08953         0.007389     -0.068023     -0.030410
Ni	     10.77778     12.28455     -6.20671         0.072736     -0.143478     -0.120482
Ni	      4.23567      4.11505     -4.11391         0.020376      0.266722      0.232626
Ni	      4.27684      8.21691     -8.21938         0.007597      0.196256      0.277795
Ni	     12.93741      6.14131     -6.12264        -0.120262     -0.247277     -0.208306
Ni	     12.90115     10.27344    -10.25078        -0.007128     -0.218703     -0.149276
Ni	      4.23505      6.14033     -2.08667         0.033432     -0.032985     -0.079986
Ni	      4.27633     10.24483     -6.18971         0.017525     -0.083851     -0.018948
Ni	     12.91131      8.17356     -4.10239        -0.038262      0.025725      0.053114
Ni	     12.90569     12.29318     -8.24773         0.024828      0.003899      0.086027
Ni	      6.41553      6.16703     -4.14229        -0.010940      0.256078      0.227915
Ni	      6.43002     10.27459     -8.24819        -0.009727     -0.303726      0.617007
Ni	     15.07898      8.18949     -6.17910        -0.189304      0.286983      0.001119
Ni	     15.03948     12.19899    -10.17498        -0.171047     -0.002225      0.098178
Ni	      6.40976      8.19692     -2.11172         0.042044     -0.037186     -0.089609
Ni	      6.42889     12.30421     -6.21686         0.002274     -0.751950      0.381813
Ni	     15.06017     10.27790     -4.18675        -0.121734     -0.125124     -0.259347
Ni	     15.01214     14.19156     -8.12527        -0.113034     -0.096654     -0.134359
O	      4.25118      4.20878     -2.17876        -0.041403     -0.040368      0.000747
O	      4.28093      8.31190     -6.28649        -0.013091     -0.039510      0.029512
O	     12.90661      6.12137     -4.18997         0.120540      0.115906      0.126386
O	     12.81280     10.38240     -8.27343         0.080580     -0.049547      0.185673
O	      4.19864      6.22994     -0.13852        -0.086173     -0.141040      0.013063
O	      4.26208     10.32709     -4.24258         0.052618     -0.146624      0.037898
O	     13.01384      8.23249     -2.06683         0.020544      0.026044     -0.040058
O	     12.85412     12.30988     -6.33104         0.007360     -0.067452      0.026678
O	      6.41087      4.24556     -4.21815        -0.009469     -0.168238     -0.066311
O	      6.44433      8.35370     -8.32254         0.019676     -0.156051     -0.043167
O	     15.13776      6.25006     -6.13385        -0.266937     -0.094757      0.176769
O	     15.09283     10.24837    -10.22681         0.023382      0.154817      0.208911
O	      6.41023      6.26126     -2.20173        -0.011409      0.016081      0.009525
O	      6.44410     10.36734     -6.30670         0.021083      0.046290      0.071302
O	     15.11287      8.15580     -4.22894         0.062561     -0.031944      0.133578
O	     15.11392     12.22714     -8.22526         0.014344     -0.009262     -0.120651
O	      4.31645      6.05676     -4.03279        -0.057221      0.032736     -0.076192
O	      4.34981     10.16289     -8.13402        -0.056975     -0.017987     -0.024001
O	     13.12202      8.06590     -6.12216        -0.135561      0.131299      0.061316
O	     13.05132     12.31182    -10.21551         0.125656      0.055631      0.054689
O	      4.24357      8.07087     -1.98583         0.015585      0.011648     -0.147946
O	      4.28691     12.17830     -6.09079         0.021978     -0.081768     -0.097115
O	     13.02261     10.17710     -3.99976         0.057102      0.011253     -0.072776
O	     13.05860     14.25137     -8.26007         0.059043     -0.049778      0.042188
O	      6.43609      1.95459     -1.95526         0.015017      0.702172     -0.478005
O	      6.42982      6.08029     -6.04785        -0.001189     -0.056726     -0.177313
O	     15.08441      8.21630     -8.04852         0.020480      0.106823     -0.051158
O	      6.43512      3.98776      0.07921         0.012233      0.464535     -0.538309
O	      6.42900      8.09354     -4.03341        -0.006626      0.015327      0.016381
O	     15.05300     10.05485     -6.18149         0.022715      0.058152      0.017323
O	      8.57231      4.19368     -2.17495        -0.054834      0.068741      0.122866
O	      8.60353      8.29906     -6.26874         0.021890      0.017627      0.001450
O	     17.07300      8.16392     -2.08801        -0.335125      0.078347     -0.071375
O	      0.03477      8.22343     -2.14128         0.373031      0.199775     -0.196487
O	      8.54439      6.21992     -0.14268        -0.030007      0.025701     -0.040546
O	      8.59723     10.34023     -4.24437        -0.010366     -0.149833     -0.035626
O	      2.02369      4.09209     -0.14944         0.468900     -0.108562     -0.095753
O	      1.99089      8.21925     -4.29778         0.501754     -0.189818      0.017065
O	     10.70043      6.25205     -2.13674        -0.008667      0.034541      0.004321
O	     10.72631     10.36451     -6.26214        -0.036717     -0.061881     -0.032232
O	      2.03098      2.17887     -2.06995        -0.014435      0.104374      0.168523
O	      1.99239      6.32645     -6.19299         0.471317      0.004528      0.306103
O	     10.68980      8.20945     -0.16220        -0.001691     -0.119224     -0.053202
O	     10.75313      8.35146     -8.30143        -0.010228     -0.014739      0.111660
O	     17.02470      8.14637     -6.12092         0.089055     -0.066761      0.094678
O	     16.96505     12.45548    -10.43874        -0.182640      0.038667      0.064377
O	      8.59510      6.03103     -4.00725        -0.034221      0.147764      0.041411
O	      8.60689     10.13922     -8.10457         0.043720     -0.012404      0.020670
O	      0.04137      6.14099     -0.05277        -0.301908     -0.062835      0.124583
O	     16.97012     14.39092     -8.31273        -0.183653     -0.228284      0.142385
O	      8.58058      8.06489     -1.98069        -0.017498     -0.008505      0.000607
O	      8.60109     12.17359     -6.07514         0.021659     -0.069025     -0.102015
O	      2.10787      4.11545     -3.98406         0.114087      0.250647     -0.039841
O	      2.16918      8.21517     -8.12512         0.100580      0.194440      0.120631
O	     10.82376     10.10279     -2.04487        -0.001281     -0.003729     -0.179476
O	     10.76415     14.20834     -6.15102         0.019851     -0.032691     -0.060185
O	      2.10897      6.01180     -2.08145         0.085973      0.065542     -0.104558
O	      2.16931     10.15097     -6.18577         0.091171     -0.083338     -0.082818
O	     10.82330      8.12694     -4.01577         0.010969      0.009958     -0.013208
O	     10.74652     12.18823     -8.17839         0.005008      0.023764      0.095340
