# total energy = -590.66815915 eV
 
CRYSTAL
PRIMVEC
-0.001831 4.099000 4.102125 
17.351942 4.144449 -4.155400 
-0.005505 8.295284 -8.301236 
PRIMCOORD
124 1
Li	      8.82131      2.21918     -2.06785         0.078397      0.144720     -0.334871
Li	      8.82983      6.45499     -6.30983        -0.035169     -0.083075     -0.016876
Li	      0.24710      4.19279      3.93825         0.867558     -0.021926     -0.240195
Li	      0.32473      8.36195     -0.20724        -0.838502     -0.311283     -0.057924
Li	      8.81588      4.23315     -0.05407         0.071889      0.244790     -0.177893
Li	      8.83692      8.47628     -4.28570        -0.041723      0.005356      0.054797
Li	      0.24906      2.33827      2.08304         0.777690      0.025189     -0.151558
Li	      0.31854      6.47892     -2.08943        -0.789265      0.040188      0.201710
Li	      2.47243      2.13350     -0.04058         0.220152      0.222827     -0.219591
Li	      2.41951      6.37068     -4.28368         0.488471     -0.038189      0.127283
Li	     10.96158      4.19524     -2.10897        -0.240019      0.348087     -0.197315
Li	     10.99252      8.44198     -6.36220        -0.087807      0.038162      0.053225
Li	      2.18787      4.21033      2.06146         0.244548      0.160689     -0.177246
Li	      2.08928      8.41815     -2.14710         0.283342     -0.046518     -0.007630
Li	     10.93958      6.28625     -0.02261        -0.218276      0.181092     -0.300394
Li	     11.07613     10.54019     -4.26984         0.020249     -0.061297     -0.028045
Li	      4.45111      2.20318     -2.05474        -0.061656      0.084124     -0.316298
Li	      4.45727      6.43670     -6.28165         0.175193     -0.060731     -0.085747
Li	     13.02804      4.26217     -4.13371        -0.237216      0.118226     -0.359777
Li	     13.32874      8.51639     -8.37368        -0.033236     -0.173225     -0.047712
Li	      4.45087      4.22578     -0.02977        -0.007106      0.157947     -0.130508
Li	      4.45879      8.45102     -4.26624         0.164817      0.035605      0.015886
Li	     13.02720      6.28434     -2.08884        -0.309184      0.307121     -0.239372
Li	     13.33305     10.56980     -6.39172        -0.017757      0.091717      0.017254
Li	      6.64971      4.18854     -2.10077         0.007508      0.249910     -0.127623
Li	      6.66976      8.41685     -6.33022        -0.015131      0.090977      0.015888
Li	     15.19681      6.51232     -4.43456        -0.529622      0.454194     -0.089986
Li	     15.22586     10.49220     -8.40525        -0.088650      0.026034      0.112661
Li	      6.65422      6.27997     -0.00947         0.129694      0.077878     -0.206158
Li	      6.65829     10.51001     -4.24076        -0.020829     -0.084222     -0.027701
Li	     15.52975      8.63114     -2.36338        -0.410615     -0.156275     -0.484145
Li	     15.59985     12.61557     -6.35994        -0.737208      0.003928     -0.113823
Ni	      0.00614      2.16510     -2.09872         4.409914      0.172217     -1.164251
Ni	      0.31851      6.52653     -6.45655        -4.888905     -1.188986     -0.292577
Ni	      8.84948      4.29246     -4.14264         0.045852     -0.818456     -0.860719
Ni	      8.87856      8.44776     -8.44544        -0.017434      0.805689      0.992489
Ni	      0.34035      4.35307     -0.07464        -3.865659      0.344113      0.287767
Ni	      0.32516      8.62492     -4.35600        -4.747970      0.252845      1.082713
Ni	      8.84952      6.30651     -2.12855         0.048333      0.242741      0.161392
Ni	      8.87702     10.53904     -6.35080         0.002073     -0.271073     -0.091628
Ni	      2.16764      4.22955     -2.13931         1.038031      0.172607     -0.318233
Ni	      2.18037      8.48262     -6.39474         1.196413      0.733540     -0.344996
Ni	     11.08387      6.32366     -4.24702        -0.033199      0.622115      0.706696
Ni	     11.08942     10.57449     -8.48225         0.095397      0.109825      0.788808
Ni	      2.15587      6.33088     -0.05995         1.978828      0.000554     -0.339649
Ni	      2.23462     10.54862     -4.27679         0.915972      0.039681     -1.060109
Ni	     11.08766      8.42233     -2.15238        -0.077957     -0.211266     -0.101466
Ni	     11.10191     12.65399     -6.39336         0.238730     -0.469595     -0.416099
Ni	      4.36306      4.23880     -4.23763         0.127255      0.971255      0.810514
Ni	      4.40544      8.46402     -8.46655         0.097689      0.672468      1.024468
Ni	     13.32646      6.38718     -6.24554        -0.374061     -0.815122     -0.902229
Ni	     13.28911     10.64358    -10.49784        -0.013141     -0.780753     -0.460584
Ni	      4.36242      6.32500     -2.14943         0.149292     -0.092820     -0.284912
Ni	      4.40493     10.55292     -6.37586         0.115179     -0.318494     -0.024033
Ni	     13.29960      8.41937     -4.22576        -0.073988      0.204659      0.141453
Ni	     13.29381     12.66288     -8.49577         0.040885     -0.074831      0.410803
Ni	      6.60848      6.35250     -4.26687        -0.156145      0.762755      0.890914
Ni	      6.62339     10.58357     -8.49624        -0.128646     -1.498001      2.608249
Ni	     15.53246      8.43577     -6.36492        -0.553205      0.806960      0.089155
Ni	     15.49176     12.56586    -10.48097        -0.370536     -0.562476      0.946206
Ni	      6.60253      8.44343     -2.17523         0.098481     -0.238810     -0.187999
Ni	      6.62223     12.67424     -6.40382        -0.042166     -3.859455      1.749448
Ni	     15.51309     10.58700     -4.31266        -0.511750     -0.477330     -0.837148
Ni	     15.46361     14.61835     -8.36963        -0.443574     -0.926998      0.112025
O	      4.37903      4.33536     -2.24429        -0.400491      0.047997     -0.259358
O	      4.40967      8.56186     -6.47554        -0.254024     -0.013498     -0.186383
O	     13.29476      6.30546     -4.31597         0.210720      0.705720      0.094608
O	     13.19813     10.69463     -8.52224         0.032902      0.147839      0.225755
O	      4.32491      6.41730     -0.14269        -0.569273     -0.219720     -0.196721
O	      4.39024     10.63766     -4.37017        -0.145100     -0.235874     -0.060397
O	     13.40521      8.48006     -2.12898        -0.007778      0.392531     -0.538007
O	     13.24069     12.68008     -6.52144        -0.230472      0.234750     -0.225929
O	      6.60364      4.43441     -4.28378         0.000145     -0.273855     -0.444153
O	      6.63811      8.66611     -8.51161         0.034054     -0.381900     -0.461616
O	     15.59301      6.43802     -6.31832        -2.425882      0.063068      0.437870
O	     15.54672     10.55657    -10.53437         0.094916      1.036719      0.251596
O	      6.60300      6.44955     -2.26794        -0.002079      0.291835     -0.288587
O	      6.63791     10.67913     -6.49637         0.039703      0.348839     -0.064111
O	     15.56737      8.40107     -4.35612         0.327137      0.004954      0.196412
O	     15.56845     12.59485     -8.47262         0.137362      0.469675     -0.887718
O	      4.44626      6.23891     -4.15407        -0.116317     -0.185812      0.003229
O	      4.48612      2.17323     -0.07740        -0.024299     -0.361537      0.209684
O	     13.51667      8.30848     -6.30628        -0.097401      0.208604      0.560773
O	     13.44933      4.38680     -2.22149         0.745898     -0.225090      0.524219
O	      4.37118      8.31359     -2.04555         0.132843     -0.166464     -0.240847
O	      4.42133      4.24926      2.02728         0.168618     -0.414549     -0.047852
O	     13.41424     10.48315     -4.12004         0.230822     -0.424089      0.213362
O	     13.45682      6.38468     -0.20724         0.607546     -0.442733      0.523679
O	      6.62965      2.01337     -2.01406         0.051827      3.259710     -1.559522
O	      6.62316      6.32433     -6.16851         0.028884     -0.454957     -0.278989
O	     15.53805      8.46339     -8.29056         0.022672      0.146145      0.320396
O	      6.62864      4.10767      0.08160         0.030166      1.690923     -1.923875
O	      6.62233      8.33693     -4.15470        -0.013215     -0.305156      0.292252
O	     15.50569     10.35723     -6.36738         0.028377     -0.134966      0.252052
O	      8.83012      4.31979     -2.24035        -0.166882      0.522439      0.132251
O	      8.86226      8.54864     -6.45727         0.082411      0.224456     -0.302584
O	      0.23452      4.26500      2.00459        -1.444926      0.518817     -0.586441
O	      0.03582      8.47074     -2.20568         2.086949      0.634523     -0.677472
O	      8.80135      6.40697     -0.14697        -0.071788      0.433255     -0.418201
O	      8.85577     10.65120     -4.37200        -0.044995     -0.202345     -0.308563
O	      2.08456      4.21515     -0.15393         2.992489     -0.129234     -0.637244
O	      2.05076      8.46643     -4.42703         3.408433     -0.483363     -0.202723
O	     11.02225      6.44007     -2.20100        -0.156202      0.269271     -0.584736
O	     11.04889     10.67621     -6.45046        -0.229810      0.028411     -0.384624
O	      2.09205      2.24440     -2.13220        -0.287624      0.689965      0.072295
O	      2.05231      6.51671     -6.37924         3.436596      0.168124      0.731713
O	     11.01310      4.35734     -4.26920        -0.131495      0.180055     -0.371537
O	     11.07652      8.60261     -8.55108        -0.147492      0.243927      0.187620
O	      0.18474      4.24690     -2.14959        -0.659632     -0.415525      0.630761
O	      0.12330      8.68561     -6.59727        -1.371238      0.037454      0.452098
O	      8.85357      6.21240     -4.12775         0.008865      0.247578      0.383718
O	      8.86573     10.44415     -8.34831         0.110235     -0.356642      0.291542
O	      0.30161      6.38753     -0.11638        -1.766790     -0.643899      0.591386
O	      0.12854     10.67926     -4.40733        -1.123713     -1.088303      0.808449
O	      8.83863      8.30743     -2.04025        -0.053901     -0.259200      0.282653
O	      8.85976     12.53970     -6.25785         0.064790     -0.422200     -0.080853
O	      2.17126      4.23921     -4.10387         0.918118      0.443312      0.154244
O	      2.23442      8.46223     -8.36947         0.609443      0.149723      0.703996
O	     11.15111      6.30762     -6.20850         0.144268     -0.218448     -0.001242
O	     11.08971     10.53664    -10.43814         0.285773     -0.479978      0.043880
O	      2.17240      6.19261     -2.14406         0.739703     -0.109506      0.100676
O	      2.23455     10.45625     -6.37180         0.544091     -0.456095      0.239048
O	     11.14878      8.37134     -4.13654         0.243216     -0.484790      0.119336
O	     11.06970     12.55478     -8.42435         0.232321     -0.232467      0.611944
