# total energy = -573.73276957 eV
 
CRYSTAL
PRIMVEC
-0.001857 4.159279 4.162450 
17.607117 4.205397 -4.216509 
-0.005586 8.417273 -8.423313 
PRIMCOORD
124 1
Li	      9.08263      2.34609     -2.06790         0.146682      0.241678     -0.675945
Li	      9.09140      6.70740     -6.43556        -0.045378     -0.097092     -0.043934
Li	      0.25620      0.28152     -0.23139         1.335768     -0.035635     -0.468146
Li	      0.59513      4.51226     -4.43784        -2.525154     -0.347360     -0.161307
Li	      9.07709      4.35857     -0.05567         0.115437      0.366284     -0.277676
Li	      9.09875      8.72741     -4.41267        -0.045030      0.015503      0.082680
Li	      0.25636      2.53133      2.02089         1.240311      0.015899     -0.264132
Li	      0.58691      6.73272     -2.21335        -2.200068      0.152768      0.337877
Li	      2.54568      2.19671     -0.04178         0.283264      0.313992     -0.396420
Li	      2.49120      6.55943     -4.41060         0.754746     -0.086964      0.280065
Li	     11.28634      4.31953     -2.17145        -0.398312      0.815874     -0.384132
Li	     11.31820      8.69209     -6.55069        -0.156304      0.028332      0.088751
Li	      2.25268      4.33507      2.12254         1.035819      0.269456     -0.445212
Li	      2.15119      8.66757     -2.21072         0.506780     -0.090936      0.005247
Li	     11.26370      6.47250     -0.02328        -0.336246      0.340882     -0.515174
Li	     11.40430     10.85247     -4.39634         0.015615     -0.075971     -0.044035
Li	      4.58296      2.32963     -2.05440        -0.197168      0.159477     -0.777100
Li	      4.58931      6.68858     -6.40655         0.339705     -0.087827     -0.134479
Li	     13.41401      4.44962     -4.19498        -0.434597      0.241437     -0.809213
Li	     13.72361      8.82987     -8.56055        -0.081399     -0.233882     -0.099550
Li	      4.58274      4.35098     -0.03065         0.035630      0.303719     -0.229468
Li	      4.59090      8.70141     -4.39265         0.307024      0.045213      0.038187
Li	     13.41316      6.47054     -2.15073        -0.507183      0.535296     -0.476131
Li	     13.72809     10.88295     -6.58109        -0.002822      0.134467      0.041389
Li	      6.84673      4.31264     -2.16300         0.035702      0.487251     -0.303416
Li	      6.86737      8.66623     -6.51777         0.020128      0.098601      0.036952
Li	     15.64706      6.70526     -4.56595        -0.887915      0.744129     -0.020162
Li	     15.67698     10.80306     -8.65428        -0.132519      0.040989      0.172943
Li	      6.85138      6.46604     -0.00976         0.169648      0.197488     -0.393483
Li	      6.85556     10.82139     -4.36640         0.009550     -0.137617     -0.012573
Li	     15.98987      8.88686     -2.43340        -0.733902     -0.313667     -0.839946
Li	     16.06205     12.98934     -6.54838        -3.079743      0.102065     -0.283662
Ni	      0.00628      2.29041     -2.09969        11.688220     -0.478785     -0.434259
Ni	      0.58686      6.84292     -6.64865       -13.889680     -0.706616     -0.741145
Ni	      9.11165      4.48080     -4.20417         0.107314     -1.157956     -1.356506
Ni	      9.14161      8.69805     -8.69566         0.048778      1.220576      1.518523
Ni	      0.60937      4.54388     -0.13886       -11.125728      1.279221      0.560538
Ni	      0.59372      8.94229     -4.54707       -13.181862      1.369315      1.259176
Ni	      9.11172      6.49337     -2.19161         0.095056      0.382293      0.146964
Ni	      9.14001     10.85129     -6.53896         0.084448     -0.405655     -0.133899
Ni	      2.23187      4.35486     -2.20270         3.512270      0.197173     -0.819850
Ni	      2.24497      8.73395     -6.58420         3.213917      1.220597     -0.532208
Ni	     11.41227      6.51101     -4.37285        -0.085070      0.939854      1.003455
Ni	     11.41797     10.88779     -8.73357         0.155867      0.110553      1.161123
Ni	      2.21975      6.51845     -0.06173         6.065839      0.488809     -0.127138
Ni	      2.30083     10.86115     -4.40351         2.477756      0.400519     -1.769764
Ni	     11.41615      8.67186     -2.21614        -0.159988     -0.257816     -0.171642
Ni	     11.43083     13.02890     -6.58279         0.346817     -0.694246     -0.562985
Ni	      4.49232      4.36440     -4.36318         0.068346      1.458431      1.225567
Ni	      4.53597      8.71479     -8.71741         0.037000      0.980077      1.563457
Ni	     13.72126      6.63759     -6.36937        -0.692655     -1.184220     -1.418821
Ni	     13.68280     11.02009    -10.74765        -0.054157     -1.200272     -0.629453
Ni	      4.49166      6.51239     -2.21311         0.077052     -0.122294     -0.382456
Ni	      4.53545     10.86559     -6.56476         0.081410     -0.491871      0.013701
Ni	     13.69364      8.66882     -4.35096        -0.215457      0.335943      0.196686
Ni	     13.68767     13.03806     -8.74748        -0.016681     -0.177625      0.658120
Ni	      6.80427      6.54071     -4.39329        -0.222006      1.114536      1.340759
Ni	      6.81962     10.89715     -8.74797        -0.150545     -2.631274      4.206068
Ni	     15.99265      8.68571     -6.55350        -0.813537      1.191533      0.122477
Ni	     15.95075     12.93816    -10.79150        -0.600554     -0.972681      1.571601
Ni	      6.79815      8.69360     -2.23968         0.108161     -0.335989     -0.212684
Ni	      6.81843     13.04975     -6.59355        -0.072031     -8.232289      2.734125
Ni	     15.97270     10.90067     -4.44044        -0.885647     -0.679035     -1.403419
Ni	     15.92176     15.05147     -8.61760        -0.803569     -1.553112      0.377769
O	      4.50877      4.46381     -2.31078        -0.715723      0.211583     -0.362782
O	      4.54031      8.81554     -6.66741        -0.443429      0.033272     -0.299477
O	     13.68866      6.49229     -4.44385         0.380796      1.211524      0.047849
O	     13.58916     11.01149     -8.77474         0.020114      0.228852      0.195330
O	      4.45303      6.60743     -0.14691        -0.810373     -0.307582     -0.523634
O	      4.52032     10.95284     -4.49965        -0.263367     -0.330625     -0.237058
O	     13.80237      8.73131     -2.19206         0.022409      0.617313     -0.931147
O	     13.63299     13.05577     -6.71466        -0.450021      0.502317     -0.338442
O	      6.79926      4.62697     -4.34949         0.044140     -0.404094     -0.657374
O	      6.83476      8.98403     -8.70258         0.006238     -0.728896     -0.676350
O	     16.05499      6.62877     -6.50552        -8.597809      0.587745     -0.057912
O	     16.00735     10.86935    -10.84649         0.196644      1.706628      0.246602
O	      6.79863      6.64064     -2.33514         0.022232      0.444425     -0.479161
O	      6.83457     10.99553     -6.68885         0.008993      0.437438     -0.014644
O	     16.02860      8.64998     -4.48518         0.774381      0.062915      0.336158
O	     16.02971     12.96801     -8.72364         0.323337      0.866643     -1.430508
O	      4.57800      6.42376     -4.27714        -0.185786     -0.279392      0.135704
O	      4.61896      2.36141     -0.20356         0.034680     -0.565043      0.763680
O	     13.91713      8.55464     -6.49312         0.056303      0.309431      0.905182
O	     13.84773      4.64056     -2.41119         1.299124     -0.562872      1.114830
O	      4.50069      8.55991     -2.10615         0.264092     -0.431558     -0.340178
O	      4.55224      4.49893      1.96347         0.407167     -0.762569     -0.030998
O	     13.81167     10.79375     -4.24211         0.351953     -0.812318      0.426389
O	     13.85544      6.69762     -0.33725         1.063180     -0.668243      0.941873
O	      6.82607      2.07302     -2.07373         0.048171      7.399880     -2.366932
O	      6.81937      6.57288     -6.29006         0.013566     -0.723617     -0.364209
O	     15.99840      8.71415     -8.53620         0.054994      0.177398      0.491530
O	      6.82504      4.22938      0.08402         0.021144      2.935654     -3.242776
O	      6.81854      8.58394     -4.27780        -0.034873     -0.514336      0.458484
O	     15.96510     10.66410     -6.55604         0.050446     -0.104955      0.440795
O	      9.09172      4.44778     -2.30673        -0.323114      0.826148      0.171902
O	      9.12483      8.80192     -6.64858         0.111636      0.253204     -0.518492
O	      0.50039      4.45321      2.00197        -3.002082      0.583400     -1.499348
O	      0.03689      8.72172     -2.27103         4.933181      0.406213     -0.554405
O	      9.06211      6.59680     -0.15133        -0.163082      0.702922     -0.665992
O	      9.11816     10.96677     -4.50154        -0.114984     -0.230233     -0.431599
O	      2.14632      4.34004     -0.15849         8.972063     -1.060558     -0.625921
O	      2.11152      8.71728     -4.55819        11.019680     -2.024932      0.111246
O	     11.34881      6.63087     -2.26621        -0.275446      0.514588     -0.865065
O	     11.37624     10.99252     -6.64157        -0.367526      0.129884     -0.617455
O	      2.15404      2.31090     -2.19537        -0.404462      1.144452     -0.173127
O	      2.11312      6.70979     -6.56824        11.350985     -0.940780      1.548773
O	     11.33937      4.54761     -4.33448        -0.227217      0.278548     -0.700903
O	     11.40468      8.85748     -8.80443        -0.263312      0.440290      0.276621
O	      0.44914      4.43458     -2.27529        -2.620579     -0.336307      1.307347
O	      0.38588      9.00479     -6.85475        -3.362774      0.097277      0.781137
O	      9.11590      6.39647     -4.25006         0.009078      0.319040      0.655606
O	      9.12841     10.75358     -8.59565         0.114775     -0.584547      0.610962
O	      0.56946      6.63862     -0.18183        -5.473650     -1.089699      0.199497
O	      0.39128     11.05751     -4.59992        -2.826181     -1.551502      1.165865
O	      9.10049      8.55356     -2.10070        -0.076243     -0.451084      0.494826
O	      9.12226     12.91122     -6.44325         0.074090     -0.634381     -0.082854
O	      2.23558      4.36481     -4.22546         2.732154      0.423625      0.042606
O	      2.30062      8.71295     -8.61744         1.292761      0.076457      1.055324
O	     11.48146      6.55567     -6.33123         0.296931     -0.465327      0.035198
O	     11.41825     10.90998    -10.68619         0.567732     -1.145694      0.103907
O	      2.23677      6.37608     -2.20758         2.343480     -0.201394      0.193996
O	      2.30076     10.76604     -6.56058         1.050592     -0.463156      0.493551
O	     11.47911      8.61937     -4.25910         0.438858     -0.691725      0.321261
O	     11.39768     12.92675     -8.67395         0.442780     -0.413193      1.022040
