# total energy = -564.48386307 eV
 
CRYSTAL
PRIMVEC
-0.001866 4.179372 4.182559 
17.692176 4.225713 -4.236878 
-0.005613 8.457937 -8.464006 
PRIMCOORD
124 1
Li	      9.17059      2.38900     -2.06772         0.185376      0.278340     -0.843568
Li	      9.17945      6.79256     -6.47768        -0.051424     -0.100643     -0.053794
Li	      0.25866      0.34530     -0.25432         1.451317     -0.045886     -0.553219
Li	      0.68636      4.59657     -4.48109        -3.516811     -0.253076     -0.230023
Li	      9.16498      4.40078     -0.05621         0.141418      0.402450     -0.309534
Li	      9.18687      8.81194     -4.45541        -0.041647      0.019800      0.092464
Li	      0.25882      2.59671      1.99957         1.375547      0.013943     -0.291495
Li	      0.67806      6.81835     -2.25525        -3.013769      0.284263      0.377376
Li	      2.57034      2.21799     -0.04219         0.297466      0.317813     -0.461500
Li	      2.51534      6.62296     -4.45331         0.855674     -0.115176      0.374982
Li	     11.39565      4.36138     -2.19248        -0.447910      1.048007     -0.447035
Li	     11.42783      8.77629     -6.61414        -0.174110      0.026562      0.101716
Li	      2.27451      4.37706      2.14310         1.563266      0.270978     -0.542440
Li	      2.17202      8.75152     -2.23213         0.594801     -0.123770      0.012905
Li	     11.37279      6.53518     -0.02351        -0.368136      0.404623     -0.586023
Li	     11.51474     10.95758     -4.43892         0.010956     -0.077810     -0.054991
Li	      4.62734      2.37238     -2.05410        -0.280412      0.292607     -1.044476
Li	      4.63375      6.77355     -6.44839         0.417780     -0.125813     -0.072837
Li	     13.54391      4.51290     -4.21540        -0.498550      0.279924     -1.021133
Li	     13.85651      8.93559     -8.62327        -0.100228     -0.248284     -0.118593
Li	      4.62713      4.39312     -0.03095         0.030354      0.377365     -0.306230
Li	      4.63535      8.78568     -4.43519         0.371624      0.006987      0.070619
Li	     13.54308      6.53320     -2.17155        -0.561537      0.609715     -0.563382
Li	     13.86106     10.98836     -6.64483         0.000045      0.162515      0.045361
Li	      6.91304      4.35441     -2.18396         0.004906      0.595054     -0.404678
Li	      6.93389      8.75016     -6.58090         0.029913      0.073822      0.062628
Li	     15.79860      6.77020     -4.61017        -0.946976      0.844160      0.020564
Li	     15.82880     10.90768     -8.73809        -0.148018      0.050445      0.182418
Li	      6.91773      6.52866     -0.00985         0.138352      0.270895     -0.485070
Li	      6.92196     10.92621     -4.40870         0.027608     -0.164439      0.012245
Li	     16.14473      8.97293     -2.45696        -0.828522     -0.397125     -0.968131
Li	     16.21761     13.11514     -6.61179        -4.569749      0.222798     -0.415563
Ni	      0.00633      2.33278     -2.09982        15.486482     -1.033734      0.649932
Ni	      0.67800      6.94979     -6.71330       -18.801844      0.107097     -0.978040
Ni	      9.19988      4.54439     -4.22468         0.119091     -1.248501     -1.485997
Ni	      9.23016      8.78230     -8.77988         0.093651      1.320263      1.693375
Ni	      0.70073      4.60830     -0.16067       -15.185170      2.037597      0.593757
Ni	      0.68493      9.04932     -4.61157       -17.943448      2.278363      1.095533
Ni	      9.19997      6.55625     -2.21284         0.077351      0.422005      0.126417
Ni	      9.22855     10.95639     -6.60229         0.125556     -0.465923     -0.139754
Ni	      2.25348      4.39705     -2.22403         4.993835      0.185650     -0.973378
Ni	      2.26672      8.81854     -6.64798         4.216307      1.388893     -0.562999
Ni	     11.52279      6.57408     -4.41520        -0.099901      1.029951      1.070027
Ni	     11.52857     10.99324     -8.81815         0.177534      0.091443      1.270959
Ni	      2.24125      6.58159     -0.06233         8.426401      0.617392      0.113542
Ni	      2.32312     10.96634     -4.44615         3.277382      0.551712     -2.006046
Ni	     11.52672      8.75584     -2.23760        -0.183805     -0.259932     -0.200721
Ni	     11.54154     13.15509     -6.64654         0.398217     -0.766568     -0.581395
Ni	      4.53582      4.40666     -4.40544         0.026350      1.521522      1.365121
Ni	      4.57990      8.79920     -8.80183        -0.012683      1.076941      1.685121
Ni	     13.85416      6.72206     -6.41086        -0.811486     -1.271061     -1.549440
Ni	     13.81532     11.14701    -10.83153        -0.076855     -1.307300     -0.658873
Ni	      4.53517      6.57547     -2.23455         0.063245     -0.218975     -0.379829
Ni	      4.57938     10.97082     -6.62835         0.047855     -0.533650     -0.000837
Ni	     13.82627      8.75278     -4.39310        -0.220062      0.359315      0.206220
Ni	     13.82024     13.16433     -8.83220        -0.027964     -0.215096      0.734041
Ni	      6.87018      6.60406     -4.43584        -0.297505      1.207096      1.468680
Ni	      6.88568     11.00269     -8.83270        -0.168137     -2.880409      4.481303
Ni	     16.14754      8.76983     -6.61697        -0.831519      1.309094      0.197212
Ni	     16.10524     13.06346    -10.89602        -0.681705     -1.090275      1.743448
Ni	      6.86399      8.77779     -2.26137         0.057300     -0.374694     -0.212528
Ni	      6.88448     13.17614     -6.65741        -0.093595     -9.909324      2.712343
Ni	     16.12741     11.00624     -4.48344        -0.959316     -0.765427     -1.583196
Ni	     16.07598     15.19725     -8.70107        -0.924940     -1.721007      0.473392
O	      4.55245      4.50704     -2.33316        -0.814166      0.064594     -0.526491
O	      4.58428      8.90092     -6.73198        -0.495495      0.013919     -0.416311
O	     13.82125      6.55517     -4.48689         0.420122      1.341556      0.012733
O	     13.72078     11.11814     -8.85972         0.032929      0.272849      0.183476
O	      4.49617      6.67142     -0.14834        -0.803254     -0.155603     -0.497599
O	      4.56411     11.05892     -4.54323        -0.284754     -0.209178     -0.296264
O	     13.93605      8.81588     -2.21329         0.028982      0.674480     -1.024825
O	     13.76503     13.18221     -6.77968        -0.516723      0.544679     -0.399038
O	      6.86510      4.69196     -4.37140         0.086154     -0.473154     -0.708095
O	      6.90094      9.09124     -8.76666        -0.009863     -0.880433     -0.706494
O	     16.21049      6.69297     -6.56852       -12.153533      0.977773     -0.846406
O	     16.16238     10.97462    -10.95154         0.217742      1.892194      0.240147
O	      6.86449      6.70495     -2.35775         0.102366      0.503509     -0.515449
O	      6.90077     11.10202     -6.75363         0.000761      0.455765      0.013130
O	     16.18383      8.73375     -4.52863         0.822717      0.100617      0.352645
O	     16.18497     13.09361     -8.80814         0.389268      0.972630     -1.556927
O	      4.62234      6.48598     -4.31858        -0.189982     -0.353311     -0.026354
O	      4.66366      2.42514     -0.24643         0.064623     -0.819561      1.073778
O	     14.05192      8.63749     -6.55601         0.126789      0.346152      0.962881
O	     13.98182      4.72635     -2.47543         1.466980     -0.637169      1.400202
O	      4.54428      8.64281     -2.12655         0.308367     -0.315718     -0.247426
O	      4.59631      4.58337      1.94159         0.516979     -0.901202      0.168574
O	     13.94545     10.89829     -4.28320         0.401095     -0.898103      0.492369
O	     13.98960      6.80335     -0.38141         1.182484     -0.750047      1.052941
O	      6.89219      2.09310     -2.09381         0.081244      9.102859     -2.324496
O	      6.88541      6.65673     -6.33077         0.040664     -0.786212     -0.429762
O	     16.15336      8.79855     -8.61887         0.051678      0.173510      0.503445
O	      6.89114      4.27034      0.08483         0.043615      3.133047     -3.395908
O	      6.88458      8.66708     -4.31923        -0.036597     -0.540430      0.501422
O	     16.11971     10.76738     -6.61953         0.045161     -0.128157      0.493605
O	      9.17978      4.49086     -2.32907        -0.389569      0.910839      0.197985
O	      9.21321      8.88717     -6.71298         0.111851      0.284150     -0.534247
O	      0.59070      4.51675      2.00089        -3.787194      0.624947     -1.732697
O	      0.03724      8.80618     -2.29302         6.490121      0.119360     -0.326969
O	      9.14988      6.66068     -0.15279        -0.213113      0.752637     -0.715189
O	      9.20646     11.07299     -4.54514        -0.146795     -0.273797     -0.501243
O	      2.16711      4.38208     -0.16003        12.724244     -1.899364     -0.603796
O	      2.13197      8.80171     -4.60234        15.603813     -3.132199      0.329650
O	     11.45872      6.69509     -2.28816        -0.302620      0.592942     -0.908306
O	     11.48643     11.09898     -6.70589        -0.387075      0.164652     -0.651112
O	      2.17489      2.33328     -2.21664        -0.546970      1.412020     -0.270470
O	      2.13357      6.77477     -6.63186        15.978849     -1.871405      2.011288
O	     11.44919      4.61185     -4.35626        -0.273648      0.285195     -0.811603
O	     11.51515      8.94328     -8.88971        -0.303167      0.496052      0.326455
O	      0.53897      4.49794     -2.31779        -3.890984     -0.248206      1.375471
O	      0.47509      9.11242     -6.94160        -4.343564      0.173335      0.776554
O	      9.20419      6.45842     -4.29122         0.019965      0.352633      0.704155
O	      9.21682     10.85774     -8.67891         0.122076     -0.602329      0.793478
O	      0.66044      6.72334     -0.20406        -7.778036     -0.978025     -0.285828
O	      0.48053     11.18502     -4.66493        -3.676135     -1.580260      1.131309
O	      9.18863      8.63640     -2.12105        -0.066266     -0.486275      0.537930
O	      9.21059     13.03627     -6.50566         0.049592     -0.716537     -0.141572
O	      2.25724      4.40709     -4.26639         3.772216      0.299258      0.119908
O	      2.32290      8.79733     -8.70091         1.583711      0.062001      1.327420
O	     11.59265      6.63936     -6.37235         0.341289     -0.540250      0.014579
O	     11.52883     11.03584    -10.76948         0.656000     -1.441154      0.094352
O	      2.25844      6.43783     -2.22896         3.141033     -0.405768      0.166722
O	      2.32304     10.87032     -6.62412         1.206535     -0.525107      0.567273
O	     11.59028      8.70285     -4.30034         0.472762     -0.728779      0.391914
O	     11.50807     13.05195     -8.75796         0.489496     -0.465926      1.136134
