# total energy = -536.09285231 eV
 
CRYSTAL
PRIMVEC
-0.001884 4.219558 4.222776 
17.862293 4.266344 -4.277618 
-0.005667 8.539263 -8.545390 
PRIMCOORD
124 1
Li	      9.34778      2.47574     -2.06707         0.364497      0.368904     -1.317398
Li	      9.35680      6.96438     -6.56225        -0.038224     -0.077900     -0.094965
Li	      0.26357      0.47464     -0.30079         1.656445     -0.088305     -0.785176
Li	      0.87136      4.76698     -4.56820        -6.480915      0.278848     -0.492204
Li	      9.34209      4.48583     -0.05730         0.220657      0.480466     -0.402086
Li	      9.36439      8.98221     -4.54150        -0.043711      0.041071      0.092607
Li	      0.26376      2.72899      1.95604         1.671093      0.097517     -0.367922
Li	      0.86291      6.99112     -2.33996        -5.505624      0.944074      0.323833
Li	      2.62000      2.26084     -0.04301         0.371783      0.330751     -0.612256
Li	      2.56394      6.75094     -4.53937         1.095217     -0.337034      0.669176
Li	     11.61586      4.44565     -2.23484        -0.599954      1.702770     -0.533271
Li	     11.64865      8.94587     -6.74194        -0.192279      0.015340      0.119512
Li	      2.31846      4.46163      2.18451         3.232497     -0.000678     -0.682437
Li	      2.21399      8.92062     -2.27526         0.681191     -0.362276      0.244680
Li	     11.59255      6.66146     -0.02397        -0.455174      0.524955     -0.736798
Li	     11.73725     11.16932     -4.52469         0.003648     -0.068410     -0.088247
Li	      4.71673      2.45879     -2.05318        -0.504009      0.309964     -1.626966
Li	      4.72326      6.94501     -6.53239         0.649199     -0.083564     -0.151678
Li	     13.80561      4.64068     -4.25625        -0.714452      0.349019     -1.622333
Li	     14.12425      9.14882     -8.74929        -0.117927     -0.304160     -0.133373
Li	      4.71653      4.47801     -0.03154         0.048185      0.446093     -0.415622
Li	      4.72492      8.95545     -4.52089         0.611171      0.044036      0.062813
Li	     13.80477      6.65944     -2.21351        -0.691244      0.801973     -0.755502
Li	     14.12888     11.20069     -6.77322        -0.019123      0.168445      0.085143
Li	      7.04662      4.43855     -2.22616         0.029379      0.879299     -0.615477
Li	      7.06787      8.91925     -6.70807         0.053352      0.071807      0.026541
Li	     16.10389      6.90102     -4.69925        -1.126664      1.032092      0.180067
Li	     16.13466     11.11845     -8.90694        -0.186687      0.020694      0.259054
Li	      7.05142      6.65482     -0.01005         0.185569      0.469241     -0.710077
Li	      7.05572     11.13734     -4.49389         0.046873     -0.174985      0.038245
Li	     16.45670      9.14632     -2.50445        -1.007148     -0.646596     -1.197111
Li	     16.53099     13.36857     -6.73956        -9.600896      0.750819     -0.935089
Ni	      0.00643      2.41843     -2.09979        25.986949     -2.891035      4.408194
Ni	      0.86283      7.16568     -6.84355       -31.849797      4.231890     -2.082075
Ni	      9.37763      4.67277     -4.26571         0.159233     -1.415111     -1.684336
Ni	      9.40850      8.95200     -8.94953         0.176181      1.458736      2.038931
Ni	      0.88603      4.73838     -0.20491       -27.164278      5.028412     -0.240363
Ni	      0.86993      9.26521     -4.74182       -31.350620      6.029160     -0.252377
Ni	      9.37774      6.68294     -2.25560         0.135141      0.445099      0.140146
Ni	      9.40687     11.16810     -6.72988         0.268339     -0.595222     -0.149659
Ni	      2.29703      4.48200     -2.26700         8.809950     -0.161098     -1.656418
Ni	      2.31052      8.98894     -6.77643         5.993778      2.288958     -1.186916
Ni	     11.74545      6.70111     -4.50052        -0.109374      1.169304      1.176676
Ni	     11.75133     11.20566     -8.98855         0.165445      0.053162      1.491525
Ni	      2.28456      6.70876     -0.06353        15.731683      0.213253      1.438605
Ni	      2.36801     11.17825     -4.53207         5.372019      0.982455     -2.699138
Ni	     11.74946      8.92504     -2.28085        -0.208989     -0.260767     -0.228132
Ni	     11.76456     13.40929     -6.77498         0.539819     -0.948910     -0.592520
Ni	      4.62348      4.49182     -4.49057        -0.049871      1.694436      1.620386
Ni	      4.66840      8.96922     -8.97191         0.024620      1.167894      2.083546
Ni	     14.12184      6.89252     -6.49413        -1.127401     -1.304915     -1.742339
Ni	     14.08225     11.40299    -11.00023        -0.184607     -1.593985     -0.564408
Ni	      4.62280      6.70252     -2.27772        -0.015060     -0.234627     -0.399530
Ni	      4.66786     11.18282     -6.75643        -0.000050     -0.698741      0.028903
Ni	     14.09343      8.92191     -4.47799        -0.203117      0.435805      0.207966
Ni	     14.08730     13.41871     -9.00287        -0.128294     -0.338752      1.030128
Ni	      7.00292      6.73166     -4.52155        -0.236498      1.376729      1.693777
Ni	      7.01872     11.21530     -9.00337        -0.165508     -2.910535      4.425229
Ni	     16.45957      8.93930     -6.74483        -0.708894      1.784459      0.354545
Ni	     16.41644     13.31589    -11.10656        -0.938702     -1.246889      1.983877
Ni	      6.99663      8.94741     -2.30507         0.140063     -0.382650     -0.219253
Ni	      7.01750     13.43075     -6.78606        -0.114662    -11.937303      0.920843
Ni	     16.43904     11.21892     -4.57008        -1.188456     -0.891791     -1.811514
Ni	     16.38660     15.49089     -8.86919        -1.295524     -1.953721      0.625131
O	      4.64041      4.59413     -2.37824        -0.807468      0.381720     -0.443436
O	      4.67286      9.07291     -6.86206        -0.736077     -0.018675     -0.196448
O	     14.08831      6.68183     -4.57358         0.481421      1.713732     -0.174588
O	     13.98591     11.33298     -9.03092         0.159111      0.627958     -0.076689
O	      4.58304      6.80034     -0.15121        -0.633733     -0.358311     -0.845726
O	      4.65230     11.27262     -4.63103        -0.447750     -0.612213     -0.344381
O	     14.20535      8.98623     -2.25606         0.081785      0.901305     -1.317527
O	     14.03101     13.43693     -6.91070        -0.441395      0.821498     -0.770279
O	      6.99774      4.82320     -4.41527         0.087014     -0.581526     -0.784607
O	      7.03428      9.30749     -8.89546        -0.036859     -1.330527      0.165818
O	     16.52373      6.82230     -6.69545       -22.377759      2.325189     -4.521646
O	     16.47469     11.18668    -11.16316         0.505300      2.148077      0.255995
O	      6.99713      6.83452     -2.40331         0.014070      0.466792     -0.547204
O	      7.03410     11.31655     -6.88413        -0.065128     -0.094322      0.279710
O	     16.49657      8.90252     -4.61613         0.627343      0.010765      0.324117
O	     16.49771     13.34662     -8.97834         0.695321      1.091588     -1.771897
O	      4.71166      6.61130     -4.40202        -0.352075     -0.235559      0.220331
O	      4.75372      2.55411     -0.33335         0.137262     -0.659061      1.711818
O	     14.32345      8.80439     -6.68269         0.115554      0.098392      1.222394
O	     14.25194      4.89979     -2.60543         1.817733     -0.960124      2.298561
O	      4.63211      8.80982     -2.16765         0.209694     -0.613257     -0.525559
O	      4.68507      4.75405      1.89694         0.552393     -1.105680     -0.090472
O	     14.21491     11.10888     -4.36597         0.476896     -1.095976      0.662322
O	     14.25987      7.01692     -0.47094         1.405999     -1.129548      1.405553
O	      7.02537      2.13355     -2.13427         0.022511     12.501821     -1.551666
O	      7.01844      6.82593     -6.41250        -0.010806     -0.869473     -0.466351
O	     16.46550      8.96856     -8.78541        -0.158536      0.153192      0.622215
O	      7.02430      4.35286      0.08647         0.060562      2.521898     -3.055694
O	      7.01761      8.83455     -4.40268        -0.063464     -0.613566      0.494847
O	     16.43122     10.97544     -6.74744        -0.063939     -0.264206      0.523649
O	      9.35717      4.57763     -2.37407        -0.492002      1.058916      0.212809
O	      9.39125      9.05890     -6.84269         0.097783      0.340719     -0.537855
O	      0.77386      4.64505      1.99843        -6.491046      1.065083     -1.746056
O	      0.03796      8.97635     -2.33733        11.729425     -0.747649      0.662781
O	      9.32669      6.78939     -0.15575        -0.286881      0.849473     -0.839557
O	      9.38436     11.28695     -4.63296        -0.205674     -0.350301     -0.629715
O	      2.20899      4.46675     -0.16312        25.524858     -5.452456      0.915751
O	      2.17316      8.97179     -4.69127        29.118803     -7.338371      2.123758
O	     11.68014      6.82447     -2.33238        -0.349633      0.750227     -1.000886
O	     11.70837     11.31345     -6.83547        -0.358004      0.312959     -0.752812
O	      2.21693      2.37837     -2.25947        -0.475471      2.156156     -0.413710
O	      2.17480      6.90568     -6.76001        29.118156     -6.646036      3.706282
O	     11.67041      4.74153     -4.39982        -0.298566      0.342812     -1.029041
O	     11.73765      9.11609     -9.06148        -0.354114      0.623529      0.401907
O	      0.72114      4.62588     -2.40371        -8.151964      0.159515      0.653385
O	      0.65602      9.32952     -7.11687        -6.913418      0.579309      0.462662
O	      9.38203      6.58321     -4.37413         0.021176      0.423902      0.849729
O	      9.39492     11.06754     -8.84661         0.009414     -0.623677      1.298168
O	      0.84497      6.89427     -0.24914       -15.609233      0.257555     -1.586275
O	      0.66157     11.44217     -4.79621        -5.842171     -1.623673      0.940822
O	      9.36619      8.80328     -2.16203        -0.047511     -0.601235      0.593816
O	      9.38859     13.28818     -6.63137        -0.070156     -0.966332     -0.194430
O	      2.30085      4.49224     -4.34883         6.880359     -0.093074      0.243852
O	      2.36778      8.96733     -8.86903         2.162634     -0.170114      2.120670
O	     11.81664      6.80822     -6.45488         0.397068     -0.736941      0.002387
O	     11.75159     11.28966    -10.93697         0.890829     -2.288290      0.063471
O	      2.30207      6.56223     -2.27203         5.844434     -1.124822     -0.013774
O	      2.36793     11.08036     -6.75212         1.549100     -0.577785      0.904930
O	     11.81424      8.87101     -4.38343         0.568780     -0.781426      0.545922
O	     11.73043     13.30415     -8.92718         0.677805     -0.597847      1.352727
