# total energy = -596.65230109 eV
 
CRYSTAL
PRIMVEC
-0.001795 4.018627 4.021691 
17.011707 4.063185 -4.073921 
-0.005397 8.132631 -8.138467 
PRIMCOORD
124 1
Li	      8.47699      6.07283      1.95529         0.011358      0.025250     -0.031828
Li	      8.48519     10.14416     -2.12197         0.006543      0.013266     -0.008980
Li	      0.23222     12.00315     -4.19357         0.015403      0.007507     -0.038122
Li	     16.99026     12.02076     -4.19323         0.016238      0.021590     -0.017764
Li	      8.47355      4.06877     -0.05197         0.013975      0.025740     -0.031297
Li	      8.49378      8.14713     -4.11927         0.004443      0.011720     -0.011394
Li	      0.23409     10.22064     -5.97673         0.014457      0.031357     -0.007670
Li	     16.98432     10.21085     -6.00234         0.016830      0.013810     -0.021201
Li	      2.37642      2.05065     -0.03900        -0.025263      0.005890     -0.008524
Li	      2.32556      6.12330     -4.11734        -0.032079      0.003218     -0.003539
Li	     10.53592      4.03234     -2.02707         0.012582      0.003799     -0.012885
Li	     10.56566      8.11416     -6.11514         0.033312     -0.020094      0.024512
Li	      2.10291      4.04684      1.98141         0.019268     -0.007037      0.005125
Li	      2.00816      8.09126     -2.06373         0.029486     -0.001781      0.001858
Li	     10.51479      6.04215     -0.02174         0.007969      0.008624     -0.013753
Li	     10.64604     10.13089     -4.10403        -0.007027     -0.016646      0.016765
Li	      4.27652      6.05746      1.96788        -0.015785      0.004922     -0.004548
Li	      4.28243     10.12659     -2.09489        -0.013320      0.010217     -0.013795
Li	     12.52038      8.03650     -0.03037         0.012688     -0.011933      0.013686
Li	     12.80940     12.12552     -4.10568        -0.013666     -0.008553      0.016814
Li	      4.27804      4.06169     -0.02862        -0.013230      0.004871     -0.004944
Li	      4.28564      8.12285     -4.10058        -0.013002      0.014224     -0.009700
Li	     12.52133      6.04031     -2.00772         0.012014     -0.006239     -0.003693
Li	     12.81532     10.15936     -6.14352        -0.020480      0.003235      0.005363
Li	      6.39149      4.02589     -2.01919         0.001320     -0.015393      0.013323
Li	      6.41076      8.09002     -6.08441        -0.012041     -0.019254      0.022429
Li	     14.60671      6.25943     -4.26236        -0.008049     -0.038715      0.048760
Li	     14.63462     10.08476     -8.07886        -0.022116     -0.028271      0.026662
Li	      6.39583      6.03611     -0.00911         0.005140     -0.015467      0.017039
Li	      6.39974     10.10189     -4.07609        -0.010245     -0.017696      0.020289
Li	     14.92670      8.29598     -2.27160        -0.032511     -0.027637      0.027833
Li	     14.99409     12.12569     -6.11297        -0.041387     -0.026547      0.026220
Ni	      0.00413      6.02085      1.92560         0.054198     -0.008000      0.242429
Ni	     16.98254     14.19645     -6.25705         0.046176      0.034862      0.211610
Ni	      8.50408      8.06561     -0.03894        -0.004096     -0.033599      0.046963
Ni	      8.53378      8.11973     -8.11750        -0.022237     -0.046945      0.064971
Ni	     17.00528      8.16754     -4.06578         0.047597     -0.244989      0.008880
Ni	     16.99068     12.27351     -8.18089         0.054823     -0.209532     -0.038179
Ni	      8.50590      6.06163     -2.04590         0.009555     -0.050652      0.029405
Ni	      8.53231     10.12980     -6.10419        -0.032606     -0.056282      0.054871
Ni	      2.08347      4.06531     -2.05624        -0.078454     -0.016968      0.016252
Ni	      2.09571      8.15324     -6.14643        -0.027089      0.012307     -0.014541
Ni	     10.65348      6.07810     -4.08210        -0.015293     -0.011009      0.011010
Ni	     10.65880     10.16387     -8.15288        -0.036921     -0.004892      0.009236
Ni	      2.07217      6.08505     -0.05763        -0.003035     -0.002989      0.005274
Ni	      2.14785     10.13900     -4.11072        -0.037200     -0.013786      0.013867
Ni	     10.65710      8.09527     -2.06880         0.028812      0.003785     -0.004138
Ni	     10.67080     12.16262     -6.14510        -0.011696     -0.009429      0.013892
Ni	      4.19363      4.07421     -4.07308        -0.004412     -0.000983     -0.008004
Ni	      4.23439      8.13535     -8.13779        -0.011186      0.000281     -0.011664
Ni	     12.80722     10.07899     -2.06018        -0.038548     -0.008329      0.056392
Ni	     12.77131     14.17011     -6.14736        -0.020580      0.016476     -0.015432
Ni	      4.19302      6.07939     -2.06597        -0.005621      0.008907     -0.000283
Ni	      4.23388     10.14314     -6.12827        -0.009192      0.013262     -0.001893
Ni	     12.78316      8.09244     -4.06167        -0.038394     -0.030035      0.003774
Ni	     12.77759     12.17116     -8.16587        -0.012994      0.033019     -0.055514
Ni	      6.35186      6.10582     -4.10118         0.053283      0.046696     -0.045270
Ni	      6.36620     10.17261     -8.16632         0.045392      0.057200     -0.053300
Ni	     14.92931      8.10821     -6.11777        -0.060077      0.035123     -0.028391
Ni	     14.89020     12.07791    -10.07399        -0.138468      0.213390     -0.230379
Ni	      6.34615      8.11557     -2.09077         0.015145      0.046909     -0.045870
Ni	      6.36509     12.18209     -6.15516         0.017293      0.060113     -0.056133
Ni	     14.91068     10.17589     -4.14520        -0.015162      0.033919     -0.038979
Ni	     14.86314     14.05071     -8.04463        -0.033648      0.218057     -0.217375
O	      4.20899      4.16701     -2.15714         0.076013     -0.124006      0.122568
O	      4.23842      8.22939     -6.22409         0.067977     -0.128951      0.132215
O	     12.77851      6.06062     -4.14838         0.107198     -0.104353      0.132905
O	     12.68562     10.27934     -8.19131         0.093101     -0.170383      0.154082
O	      4.15696      6.16810     -0.13714         0.059795     -0.130875      0.128639
O	      4.21977     10.22459     -4.20047         0.116106     -0.118074      0.127033
O	     12.88467      8.15078     -2.04632         0.054719     -0.138630      0.148044
O	     12.72654     12.18770     -6.26820         0.085701     -0.181775      0.174780
O	      6.34546      8.20206     -0.17460        -0.004700     -0.127301      0.116402
O	      6.37859     12.26943     -4.23825         0.016779     -0.116363      0.124019
O	     14.98750      6.18803     -6.07297        -0.008982     -0.168525      0.052131
O	     14.94303     10.14665    -10.12531         0.016957     -0.174631      0.179548
O	      6.34659      6.19911     -2.17987        -0.008397     -0.117660      0.122972
O	      6.38013     10.26445     -6.24411         0.019696     -0.108287      0.137904
O	     14.96287      8.07485     -4.18697        -0.005551     -0.060446      0.159412
O	     14.96390     12.10578     -8.14361         0.000987     -0.179833      0.172850
O	      4.27361      5.99664     -3.99276        -0.057669      0.133767     -0.137939
O	      4.30662     10.06201     -8.05328        -0.077821      0.125411     -0.132057
O	     12.99179      7.98584     -6.06139        -0.162000      0.113797     -0.132653
O	     12.92179     12.18962    -10.11413        -0.082005      0.143279     -0.129198
O	      4.20145      7.99076     -1.96612        -0.042695      0.122775     -0.121495
O	      4.24435     12.05742     -6.03034        -0.038104      0.116662     -0.121001
O	     12.89335     10.07609     -3.96006        -0.018811      0.161169     -0.189667
O	     12.92898     14.10991     -8.17808        -0.133349      0.132599     -0.137775
O	      6.37223      1.93519     -1.93585         0.007469      0.123866     -0.149419
O	      6.36421     10.01858     -1.98614        -0.000380      0.132758     -0.139727
O	     14.93470      8.13475     -7.96863         0.032380      0.096176     -0.242972
O	      6.37124      3.94817      0.07843         0.007794      0.136319     -0.122905
O	      6.36519      8.01320     -3.99337         0.001650      0.144378     -0.130004
O	     14.90358      9.95505     -6.12013         0.025124      0.232771     -0.072044
O	      8.48722      4.15204     -2.15335        -0.022709     -0.126562      0.124233
O	      8.51813      8.21668     -6.20652        -0.013792     -0.114376      0.120588
O	     16.90354      8.08289     -2.06729        -0.016976     -0.095469      0.093858
O	      0.03443      8.14181     -2.12002        -0.025267     -0.074385      0.081480
O	      8.45958      6.15819     -0.14127        -0.021252     -0.130883      0.135869
O	      8.51190     10.23760     -4.20224        -0.008264     -0.126641      0.128500
O	      2.00361      4.05147     -0.14796         0.081799     -0.156894      0.141119
O	      1.97113      8.13767     -4.25512         0.053254     -0.171193      0.137807
O	     10.59423      6.18999     -2.11553         0.051448     -0.131317      0.216584
O	     10.61984     10.26163     -6.19997         0.047847     -0.142772      0.122374
O	      2.01081      2.15725     -2.04941         0.084637     -0.137646      0.174773
O	      1.97261      6.26365     -6.13153         0.040985     -0.146412      0.171431
O	     10.58369      8.12798     -0.16059         0.054493     -0.195794      0.137786
O	     10.64640      8.26856     -8.21904         0.050906     -0.152615      0.114394
O	     16.85571      8.06551     -6.06016         0.222180      0.075526     -0.073754
O	     16.79665     12.33185    -10.33513         0.154757      0.041504     -0.040409
O	      8.50979      5.97117     -3.96747        -0.053188      0.118360     -0.117348
O	      8.52147     10.03859     -8.02414         0.002954      0.126446     -0.126067
O	     16.96803     10.12301     -4.10590        -0.026652      0.139367     -0.132674
O	     16.80168     14.24808     -8.23022         0.089985      0.108152     -0.116561
O	      8.49541      7.98484     -1.96103        -0.015098      0.109572     -0.113965
O	      8.51572     12.05276     -6.01485         0.008578      0.120808     -0.115431
O	      2.08695      4.07459     -3.94451        -0.065163      0.152112     -0.170893
O	      2.14765      8.13363     -8.04448        -0.072122      0.192545     -0.128436
O	     10.71633     10.00252     -2.02458        -0.055162      0.130904     -0.213786
O	     10.65732     14.06732     -6.08997        -0.084915      0.148565     -0.123290
O	      2.08805      5.95214     -2.06080        -0.062971      0.172322     -0.173182
O	      2.14778     10.05022     -6.12438        -0.072545      0.127685     -0.195881
O	     10.71586      8.04627     -3.97591        -0.059386      0.182562     -0.130898
O	     10.63985     12.06726     -8.09722        -0.085534      0.157035     -0.121392
