# total energy = -91.74768285 eV
 
CRYSTAL
PRIMVEC
-0.000026 2.062158 2.062218 
8.174140 2.117892 -2.118305 
-0.009049 4.253560 -4.254144 
PRIMCOORD
16 1
Li	      4.04526      2.18052     -2.18033        -0.012666      0.041898     -0.042374
Li	      8.12800      6.34543     -2.22191         0.010025      0.016487     -0.015973
Li	      2.21317      4.18211     -2.11999         0.052515     -0.013511      0.013516
Li	      4.10580      4.18074     -4.18079        -0.021939     -0.041689      0.041204
Mn	     -0.00659      4.23677     -4.23717         0.016625      0.005744     -0.005615
Mn	      2.13934      2.11634     -0.05398         0.086891     -0.000935      0.001654
Ni	      6.00518      4.27121     -2.20966        -0.020624     -0.025166      0.026971
Ni	      5.99875      6.30965     -4.24798        -0.028735      0.014235     -0.014908
O	      6.18140      4.27358     -4.27410         0.045375     -0.004424      0.004277
O	      0.04295      4.34289     -2.28086         0.050879      0.043721     -0.043961
O	      6.26630      2.11026     -2.11045         0.115827      0.017119     -0.017074
O	      0.04825      1.98067      0.08138         0.083500     -0.035456      0.037198
O	      1.97987      1.97381     -1.97361        -0.012544     -0.036504      0.035874
O	      4.07555      4.20123     -2.13919        -0.133106     -0.006579      0.006379
O	      1.94825      4.37521     -4.37563        -0.028966      0.031907     -0.032166
O	      3.95748      2.08530     -0.02240        -0.203055     -0.006846      0.004998
