# total energy = -596.34819639 eV
 
CRYSTAL
PRIMVEC
0.000378 4.023684 4.017393 
16.960642 4.065387 -4.057452 
-0.017597 8.153396 -8.140157 
PRIMCOORD
124 1
Li	      8.43691      2.04421     -2.03902        -0.001684      0.013441     -0.011923
Li	      8.43766      6.15463     -6.12914        -0.017222      0.017448     -0.019886
Li	      0.15128     12.11951     -4.25510         0.025798     -0.011747     -0.007500
Li	     16.91201     12.14605     -4.13347         0.041095      0.013860     -0.056611
Li	      8.43889      4.06230     -0.02823        -0.003644      0.007893     -0.011986
Li	      8.43007      8.15308     -4.13454        -0.017335      0.020047     -0.015628
Li	      0.16678      2.13577      2.05190         0.017651      0.002056      0.008576
Li	     16.93187     10.18018     -6.09727         0.043283      0.057080     -0.013622
Li	      2.34190      2.03209     -0.02151        -0.016946      0.032912     -0.033305
Li	      2.02345      6.10238     -4.07670         0.016122     -0.046752      0.039037
Li	     10.41174      4.03672     -2.00650        -0.001224     -0.024995      0.021760
Li	     10.53825      8.09962     -6.07905        -0.000318      0.023647     -0.016738
Li	      2.08404      4.04549      1.97975         0.032103      0.011158     -0.006852
Li	      1.99403      8.06684     -2.01627         0.014706     -0.029891      0.029032
Li	     10.49439      6.05560     -0.02568        -0.000525     -0.013905      0.016338
Li	     10.64891     10.13017     -4.09487        -0.001860      0.004742     -0.012399
Li	      4.25076      6.06611      1.96302        -0.013264     -0.009509      0.002088
Li	      4.26831      6.10747     -6.08822        -0.025090      0.004333     -0.000717
Li	     12.43568      4.01309     -3.75716        -0.005402     -0.018771     -0.005962
Li	     12.82413      8.12334     -8.10032        -0.012508      0.009121     -0.006415
Li	      4.25609      4.07261     -0.02562        -0.008086     -0.006856      0.004545
Li	      4.27076      8.11455     -4.08502        -0.019313      0.004391     -0.004385
Li	     12.44413      5.81540     -2.02298        -0.029559      0.016640     -0.000099
Li	     12.82518     10.15196     -6.13125        -0.013695     -0.016675      0.013273
Li	      6.34641      4.02210     -2.00768        -0.013680     -0.030226      0.026192
Li	      6.38469      8.11353     -6.08846        -0.019645     -0.015140      0.014291
Li	     14.71255      6.10493     -4.11782         0.011765     -0.007308     -0.013859
Li	     14.86337     10.11484     -8.08007         0.020023      0.000265     -0.000709
Li	      6.34916      6.04231     -0.00681        -0.012244     -0.028795      0.024256
Li	      6.38228     10.12799     -4.08045        -0.012527     -0.016217      0.013536
Li	     15.14586      8.29661     -2.28151        -0.049443     -0.010254      0.011479
Li	     14.91553     12.12928     -6.07084         0.025984     -0.012718      0.018787
Ni	      0.01384      6.01936      1.94912         0.055884     -0.020597      0.188488
Ni	     16.92878     14.12654     -6.11420         0.049029      0.026855      0.022202
Ni	      8.45930      4.05146     -4.03350        -0.061704     -0.054552      0.056926
Ni	      8.52488      8.12868     -8.11270        -0.027798     -0.044194      0.036008
Ni	     -0.00028      4.07529      0.00555         0.070759     -0.182456      0.028554
Ni	     16.93862     12.16874     -8.07001         0.016288     -0.006927     -0.027301
Ni	      8.45941      6.05447     -2.03534        -0.059027     -0.052331      0.083316
Ni	      8.52213     10.14292     -6.10256        -0.045590     -0.044641      0.043909
Ni	      2.09429      4.05397     -2.04400        -0.047176     -0.029819      0.024194
Ni	      2.13053      8.15801     -6.13091        -0.041746     -0.046773      0.046412
Ni	     10.65644      6.06139     -4.05027        -0.088804      0.014145     -0.005407
Ni	     10.68313     10.18212     -8.13759        -0.097638     -0.013390     -0.004974
Ni	      2.07650      6.07128     -0.04150        -0.060986     -0.026336      0.021622
Ni	      2.08395     10.17243     -4.12506         0.006954      0.006738      0.002947
Ni	     10.46830      8.10068     -2.06609         0.073368      0.010821     -0.008370
Ni	     10.67716     12.18403     -6.13489        -0.065367      0.002658      0.005632
Ni	      4.16742      4.08503     -4.07055        -0.011492     -0.015293     -0.004525
Ni	      4.19754      8.14690     -8.13019         0.024820     -0.008521      0.011299
Ni	     12.74050      6.17250     -6.05282         0.000933     -0.144511     -0.069373
Ni	     12.78749     10.17005    -10.14577         0.053072      0.029223     -0.027253
Ni	      4.16609      6.09170     -2.06851        -0.011942     -0.008536      0.015810
Ni	      4.19926     10.15730     -6.12239         0.015612      0.010621      0.017910
Ni	     12.76049      8.05589     -4.16395        -0.007965      0.052958      0.159834
Ni	     12.78682     12.20320     -8.15559         0.056394      0.112836     -0.056267
Ni	      6.31130      6.12452     -4.09777         0.003609      0.033923     -0.041430
Ni	      6.34063     10.18041     -8.15505         0.016897      0.063274     -0.057049
Ni	     14.86696      8.10537     -6.08913         0.046913     -0.006740     -0.007180
Ni	     14.91058     12.23812    -10.19507        -0.107407     -0.013224      0.018660
Ni	      6.30726      8.13891     -2.09236         0.005499      0.040969     -0.041470
Ni	      6.32732     12.19241     -6.14559         0.012090      0.052084     -0.046708
Ni	     14.86207     10.14606     -4.10578         0.021921      0.070263     -0.035816
Ni	     14.86898     14.12213     -8.07221         0.102297      0.220467     -0.213261
O	      4.21303      4.15712     -2.16679         0.081609     -0.122956      0.125426
O	      4.18811      8.22681     -6.19936         0.092677     -0.141726      0.124583
O	     12.77706      6.00795     -4.02270         0.095436     -0.113688      0.111422
O	     12.74513     10.32354     -8.15701         0.108427     -0.176051      0.074764
O	      4.17644      6.16236     -0.15915         0.085551     -0.124158      0.132277
O	      4.16887     10.25365     -4.20912         0.085810     -0.145346      0.145582
O	     12.78046     12.22903     -6.27515         0.103331     -0.081769      0.189759
O	      6.30924      8.22771     -0.18004         0.030458     -0.120371      0.137312
O	      6.34451     12.28109     -4.22823         0.039164     -0.137587      0.129900
O	     14.85576      6.15139     -6.10605        -0.008537     -0.171124      0.170461
O	     14.99705     10.25576    -10.16545        -0.161706     -0.130737      0.140671
O	      6.31041      6.22635     -2.18039         0.038010     -0.125135      0.119834
O	      6.34430     10.27568     -6.23019         0.038247     -0.129761      0.128136
O	     14.86472      8.03665     -4.13554        -0.006467     -0.112421      0.144872
O	     15.02521     12.19647     -8.21417        -0.185391     -0.141926      0.124094
O	      4.21369      6.02434     -3.97129        -0.053630      0.138211     -0.142365
O	      4.27241     10.06155     -8.03216        -0.088174      0.125283     -0.135295
O	     12.99358      8.11961     -6.10870        -0.194692      0.115678     -0.109803
O	     12.91575     12.15512    -10.04361        -0.158578      0.070970     -0.166098
O	      4.16745      8.03057     -1.96164        -0.043310      0.118476     -0.126413
O	      4.20503     12.07653     -6.03007        -0.058336      0.127460     -0.136083
O	     12.91583     10.01583     -3.99398        -0.181627      0.120790     -0.094255
O	     12.94903     14.23283     -8.25508        -0.171256      0.089075     -0.040225
O	      6.34552      5.94190      2.09199         0.019344      0.124967     -0.118398
O	      6.33308      6.02033     -6.00444         0.011312      0.129793     -0.125011
O	     14.87089      8.11540     -7.93251         0.012003      0.137673     -0.218366
O	      6.34788      3.93613      0.09116         0.015787      0.126351     -0.130537
O	      6.33468      8.03322     -3.99623         0.014174      0.143451     -0.129312
O	     14.88385      9.94934     -6.02116         0.011305      0.207589     -0.199472
O	     16.94661     10.32495     -8.28595         0.020564     -0.156237      0.174300
O	      8.39871      4.14188     -2.11963         0.003839     -0.145931      0.131675
O	      8.49514      8.23063     -6.20409        -0.001144     -0.131981      0.144215
O	     16.95576      8.08835     -2.05938        -0.026405     -0.088660      0.089364
O	      0.00933      8.11548     -2.06804        -0.030545     -0.157548      0.153442
O	      8.43716      6.17147     -0.12944         0.002460     -0.131703      0.120840
O	      8.51777     10.24360     -4.19425         0.007172     -0.133963      0.134944
O	      2.01881      4.05939     -0.14310         0.024373     -0.265139      0.153974
O	      1.88521      8.17505     -4.24711         0.141601     -0.095671      0.128458
O	     10.55888      6.09742     -2.13881         0.108213     -0.111007      0.142399
O	     10.61190     10.26616     -6.22568         0.083432     -0.153998      0.166277
O	      2.02937      2.15137     -2.04766         0.029874     -0.162071      0.252841
O	      1.89017      6.27788     -6.14617         0.081816     -0.144671      0.096009
O	     10.56072      4.14837     -4.07606         0.098343     -0.140618      0.111302
O	     10.64911      8.25956     -8.23504         0.096200     -0.163654      0.169863
O	     16.78982      8.01700     -6.00151         0.083524      0.095487     -0.113934
O	     15.99068      5.11534     -3.11832         0.259161      0.229190     -0.234915
O	      8.46372      5.96791     -3.95046         0.029832      0.126518     -0.138976
O	      8.48959     10.04633     -8.02239         0.032392      0.117683     -0.122752
O	     16.82135     10.11280     -4.08015         0.084838      0.111509     -0.105759
O	     16.86974     14.14172     -8.08631         0.038408      0.129002     -0.150870
O	      8.45150      7.99052     -1.95420        -0.014566      0.127420     -0.120784
O	      8.49458     12.06292     -6.01165         0.012726      0.135111     -0.127414
O	      2.10085      4.01972     -3.92820        -0.076097      0.298112     -0.152152
O	      2.08726      8.16131     -8.00881        -0.101440      0.091239     -0.196348
O	     10.73822      6.04471     -5.97178        -0.073121      0.133018     -0.125273
O	     10.67449     10.08418    -10.06355        -0.023005      0.171576     -0.167525
O	      2.09523      5.93814     -2.01324        -0.077323      0.156746     -0.277196
O	      2.08672     10.03478     -6.13701        -0.102305      0.195007     -0.090988
O	     10.75680      7.98041     -4.03115        -0.085259      0.126924     -0.134120
O	     10.65431     12.11562     -8.05632        -0.049511      0.169026     -0.180287
