# total energy = -596.26690346 eV
 
CRYSTAL
PRIMVEC
0.000136 4.011932 4.012078 
17.049825 4.033542 -4.033318 
-0.028203 8.113199 -8.113046 
PRIMCOORD
124 1
Li	      8.70518     10.15782    -10.15753         0.026446      0.026868     -0.027082
Li	      8.72252     10.12589     -2.10170         0.040010     -0.014121      0.012469
Li	     17.02269      4.06626     -4.06348        -0.001178      0.025621     -0.022747
Li	     17.01539      8.11939     -8.11429         0.031524      0.013615     -0.016429
Li	      8.70943     12.17889     -8.16631         0.037366     -0.021907      0.021922
Li	      8.71747      8.10510     -4.09260         0.036819      0.033693     -0.032288
Li	     17.02154      6.07079     -2.05994        -0.001577      0.022808     -0.025066
Li	     17.01775     10.12066     -6.11220         0.031343      0.015066     -0.013250
Li	      2.06467      2.01592     -0.00189        -0.058974      0.032013     -0.036695
Li	      2.04438      6.04320     -4.04021        -0.047754     -0.029086      0.027340
Li	     10.61961      4.05485     -2.03510         0.049114     -0.002993      0.005870
Li	     10.60575      8.09550     -6.10507         0.050620     -0.003220      0.007924
Li	      2.06898      4.01138      2.00059        -0.037598      0.033182     -0.029202
Li	      2.05122      8.05013     -2.02673        -0.032177     -0.030423      0.033244
Li	     10.61961      6.04720     -0.04253         0.051137     -0.006044      0.003017
Li	     10.60604     10.11753     -4.08276         0.050812     -0.008442      0.003223
Li	      4.03798      2.02400     -2.01712        -0.059434     -0.030614      0.036738
Li	      4.03961      6.05237     -6.04997        -0.047200      0.018840     -0.018274
Li	     12.80915      4.03998     -4.03936         0.022275      0.006534     -0.007555
Li	     12.79904      8.09543     -8.09462         0.021995      0.003835     -0.004014
Li	      4.03996      4.00223      0.00295        -0.060547      0.005050     -0.012515
Li	      4.03799      8.07720     -4.06677        -0.042456     -0.035528      0.033709
Li	     12.81356      6.04768     -2.03513         0.020267      0.005776     -0.005224
Li	     12.79610     10.09983     -6.08702         0.020193      0.003944     -0.003935
Li	      6.39245      4.19184     -2.18139        -0.028033     -0.020642      0.022663
Li	      6.38401      8.24585     -6.24344        -0.034294     -0.035731      0.027836
Li	     14.94069      6.02685     -4.02005         0.007347     -0.013515      0.012676
Li	     14.92296     10.08028     -8.07352         0.015115     -0.016145      0.016812
Li	      6.38904      6.19395     -0.17943        -0.036690     -0.025089      0.023639
Li	      6.38347     10.25589     -4.23312        -0.031219     -0.029374      0.037206
Li	     14.94214      8.03261     -2.01398         0.010084     -0.011127      0.011323
Li	     14.92452     12.08529     -6.06678         0.020484     -0.017605      0.017549
Ni	      0.01474      2.01597     -2.01209        -0.044099     -0.041133      0.036868
Ni	     -0.00771      6.07657     -6.07644        -0.029976     -0.050705      0.050811
Ni	      8.49856      8.01849      0.00506         0.034719     -0.026868      0.031128
Ni	      8.45250     12.08785     -4.06376         0.085816     -0.015660      0.014583
Ni	      0.01588      4.01950     -0.01157        -0.034447     -0.036039      0.061840
Ni	     -0.00772      8.08241     -4.06847        -0.044084     -0.050993      0.035443
Ni	      8.46493      6.02599     -2.01248         0.073438     -0.032178      0.010284
Ni	      8.48601     10.06881     -6.05580         0.042309     -0.007889      0.009027
Ni	      2.16503      4.04528     -2.04677        -0.082001     -0.003874      0.003942
Ni	      2.15417      8.11007     -6.09654        -0.087684      0.010305     -0.011318
Ni	     10.64586      6.06029     -4.04996         0.019942     -0.016737      0.002253
Ni	     10.63298     10.11263     -8.10953         0.014725     -0.020523      0.019360
Ni	      2.16807      6.05874     -0.03278        -0.074574     -0.008292      0.004140
Ni	      2.15433     10.10932     -4.09738        -0.087944      0.005920      0.006005
Ni	     10.64619      8.06236     -2.04811         0.021534     -0.002728      0.023164
Ni	     10.63327     12.12148     -6.09929         0.015208     -0.002267     -0.003856
Ni	      4.31066      4.05059     -4.04670        -0.105780      0.048920     -0.021969
Ni	      4.27107      8.10269     -8.10114        -0.070706      0.007908     -0.005182
Ni	     12.76154     10.07801     -2.05401         0.053076     -0.001144      0.007935
Ni	     12.74509     10.12295    -10.12232         0.053400      0.008657     -0.008128
Ni	      4.27617      6.04755     -2.04099        -0.064000      0.018382     -0.018832
Ni	      4.30248     10.11089     -6.09850        -0.104459      0.029440     -0.035181
Ni	     12.76014      8.07308     -4.06076         0.052274      0.006053      0.006057
Ni	     12.74703     12.12804     -8.11555         0.050391      0.003970      0.004688
Ni	      6.40262      5.98551     -3.98418        -0.018537      0.229641     -0.224722
Ni	      6.38674     10.04853     -8.03581        -0.005333      0.222226     -0.230796
Ni	     14.88888      8.10299     -6.09661         0.039669      0.047346     -0.039531
Ni	     14.87290     12.16160    -10.15453         0.044498      0.050928     -0.059829
Ni	      6.39576      7.99512     -1.97197        -0.033043      0.229252     -0.230143
Ni	      6.38123     12.04873     -6.03617        -0.013909      0.239704     -0.227154
Ni	     14.89072     10.10955     -4.09048         0.054177      0.032994     -0.045616
Ni	     14.87174     14.16776     -8.14849         0.039787      0.044844     -0.056849
O	      4.32729      4.02410     -2.12117         0.123231     -0.036629      0.222082
O	      4.29908      8.18385     -6.07499         0.152932     -0.217988      0.017867
O	     12.75605      6.15655     -4.15053         0.055964     -0.120569      0.126216
O	     12.74287     10.21229     -8.20668         0.064750     -0.117086      0.124734
O	      4.31684      6.13639     -0.01430         0.149812     -0.219758      0.024440
O	      4.29663     10.08883     -4.17072         0.165654     -0.028697      0.223851
O	     12.75598      8.16286     -2.14358         0.054966     -0.130489      0.116213
O	     12.74304     12.21932     -6.19964         0.063080     -0.123539      0.112583
O	      6.42058      8.07073     -0.04694         0.071574     -0.159274      0.160377
O	      6.36318     12.13313     -4.11013        -0.038481     -0.155200      0.166436
O	     14.88485     10.19901     -2.17611        -0.001754     -0.111985      0.106908
O	     14.87564     14.25859     -6.23444        -0.000188     -0.111116      0.122601
O	      6.37528      6.07063     -2.05740        -0.013930     -0.157672      0.152006
O	      6.40213     10.12239     -6.10808         0.085760     -0.170652      0.156586
O	     14.88500      8.19536     -4.18113        -0.001453     -0.106045      0.113585
O	     14.87555     12.25302     -8.23987        -0.002385     -0.118189      0.118638
O	      4.45151      6.01557     -4.10045        -0.082567      0.207463     -0.042101
O	      4.43227     10.15914     -8.05881        -0.080955      0.022823     -0.186217
O	     12.75457      7.97976     -5.97508        -0.092096      0.117862     -0.119435
O	     12.74134     12.03747    -10.02923        -0.088743      0.116389     -0.118460
O	      4.43532      8.10796     -1.99619        -0.092957      0.028270     -0.206088
O	      4.41991     12.07310     -6.14872        -0.070967      0.192016     -0.022621
O	     12.75450      9.98769     -3.96712        -0.092376      0.114449     -0.121937
O	     12.74132     14.04231     -8.02471        -0.093291      0.114349     -0.119047
O	     14.90306      7.95502      0.06872        -0.017033      0.123407     -0.111934
O	     14.89001      7.99915     -7.99861        -0.005287      0.126164     -0.123239
O	     14.90421      5.94981     -1.93662        -0.020241      0.115839     -0.116774
O	     14.88942     10.00564     -5.99278        -0.005842      0.119480     -0.123900
O	     17.02165      6.14726     -4.13861        -0.031875     -0.124872      0.120933
O	     17.01908     10.21303     -8.20791        -0.005645     -0.120203      0.126700
O	      8.45226      4.10321     -1.99692        -0.024567     -0.219718      0.031893
O	      8.43947      8.06019     -6.15341        -0.038503     -0.041003      0.222970
O	     -0.00291      4.12135      1.89548        -0.011462     -0.124398      0.120120
O	     17.03026     12.21507     -6.19441        -0.012784     -0.117498      0.119893
O	      8.45207      6.00883     -0.09182        -0.025341     -0.030032      0.230552
O	      8.43949     10.16577     -4.04762        -0.038447     -0.221503      0.041835
O	      2.09936      4.08729     -0.13793         0.106090     -0.200710      0.092260
O	      2.07735      8.19196     -4.17914         0.100481     -0.151379      0.161498
O	     10.58468      6.15695     -2.14451         0.043802     -0.151692      0.155197
O	     10.57116     10.21220     -6.19928        -0.001096     -0.155293      0.150410
O	      2.08535      2.13319     -2.07183         0.123040     -0.091957      0.195655
O	      2.09422      6.19709     -6.19488         0.090959     -0.173487      0.159804
O	     10.58103      4.15020     -4.14979         0.013165     -0.157687      0.153944
O	     10.57375     12.21821     -4.19419         0.032915     -0.140528      0.150170
O	     17.02873      7.96969     -5.96291         0.015270      0.109971     -0.115449
O	     -0.02105      7.99577     -5.99059        -0.003816      0.120817     -0.114500
O	      8.38261      6.08300     -3.98241         0.098371      0.011687     -0.165020
O	      8.36840     10.04541     -8.13363         0.083934      0.173214      0.002144
O	     -0.00516      5.94006      0.07794        -0.022882      0.102409     -0.108090
O	     -0.01799     10.00194     -3.98198        -0.017261      0.117526     -0.120199
O	      8.37907      7.99595     -2.07099         0.087670      0.174721     -0.013124
O	      8.36571     12.14659     -6.03350         0.077999     -0.001004     -0.178360
O	      2.19200      4.01607     -3.95630        -0.042781      0.220230     -0.107042
O	      2.17864      8.01649     -8.01569        -0.008519      0.156905     -0.162118
O	     10.67061      5.95615     -5.95584        -0.138722      0.154086     -0.154196
O	     10.66032     10.02203    -10.02121        -0.128810      0.153557     -0.163546
O	      2.19458      5.95673     -2.00645        -0.021940      0.109672     -0.216910
O	      2.17048     10.02489     -6.01233        -0.029905      0.171485     -0.170366
O	     10.67495      7.97212     -3.95961        -0.136437      0.154149     -0.157451
O	     10.65728     12.01759     -8.00544        -0.138289      0.164216     -0.152284
