# total energy = -595.70750751 eV
 
CRYSTAL
PRIMVEC
0.001786 4.065053 4.080891 
16.813501 4.158198 -4.166360 
0.056408 8.177847 -8.209268 
PRIMCOORD
124 1
Li	      8.40949      2.13578     -2.09738        -0.007965      0.016910     -0.029345
Li	      8.37435     10.26893     -2.17504         0.017986      0.020216     -0.000642
Li	      0.26578     12.08882     -3.98207         0.001096      0.021894     -0.026186
Li	     16.76128     12.37543     -4.26466        -0.009870      0.043914     -0.044846
Li	      8.40761      4.15214     -0.09666        -0.001272      0.028826     -0.022658
Li	      8.42527      8.26011     -4.18918         0.010699      0.018811     -0.017323
Li	      0.25701     10.05519     -6.00617         0.001920      0.023345     -0.039591
Li	     16.72724     10.35545     -6.30617        -0.005826      0.069496     -0.031782
Li	      2.41272      2.14585     -0.10442         0.007836     -0.030365      0.013473
Li	      2.06746      6.17911     -4.12105        -0.022517      0.032698     -0.016336
Li	     10.39292      4.10247     -2.07192        -0.010454      0.020286     -0.004856
Li	     10.52304      8.14799     -6.14214        -0.023585     -0.016904      0.015063
Li	      2.40815      4.14226      1.92930        -0.000275     -0.001482      0.003897
Li	      2.07982      8.26711     -2.18013        -0.008062      0.013067      0.001448
Li	     10.42086      6.17272     -0.01182        -0.000187      0.011972     -0.016172
Li	     10.52900     10.15824     -4.06914         0.007937     -0.013812      0.030429
Li	      4.29246      6.10743      1.97147         0.010610      0.000874      0.003286
Li	      4.24142     10.30899     -2.19924         0.001955      0.001809     -0.010791
Li	     12.31179      4.08318     -4.05442         0.000661      0.002827     -0.003611
Li	     12.69773      8.12307     -8.14836         0.001296     -0.001086     -0.002297
Li	      4.32508      4.12240     -0.05627         0.011374     -0.021405      0.009558
Li	      4.26823      8.25387     -4.19957         0.013880      0.010975     -0.009135
Li	     12.30938      6.08707     -2.01740        -0.010341      0.015170     -0.018368
Li	     12.71519     10.22390     -6.20632         0.016224     -0.022819      0.013515
Li	      6.31030      4.06392     -2.03649         0.010036     -0.020599      0.021928
Li	      6.34642      8.14333     -6.14993         0.000915     -0.018665      0.011712
Li	     14.51818      6.34246     -4.33335        -0.012936     -0.021603      0.042182
Li	     14.85329     10.19640     -8.19171         0.016795     -0.054248      0.038819
Li	      6.30839      6.08567     -0.03225         0.010277     -0.020134      0.031440
Li	      6.39680     10.19908     -4.08819        -0.001251     -0.017229      0.008476
Li	     14.51069      8.37647     -2.27839        -0.008584     -0.028722      0.021495
Li	     14.82942     12.24214     -6.14007         0.023505     -0.042789      0.029344
Ni	      0.15376      2.19256     -2.19922         0.032435     -0.215722      0.182032
Ni	     16.79722     10.32568    -10.35646         0.031283     -0.015935      0.035412
Ni	      8.36410      4.10449     -4.08839        -0.084660     -0.030472      0.052889
Ni	      8.52013     12.21866     -4.13333        -0.031883     -0.044549      0.019176
Ni	      0.10491      4.21908     -0.17202         0.020071     -0.190017      0.221062
Ni	     16.78005     12.37234     -8.29762         0.012680     -0.037482      0.020688
Ni	      8.36226      6.13550     -2.04979        -0.069363     -0.026118      0.037401
Ni	      8.51437     10.18060     -6.17970        -0.085826     -0.034779      0.063113
Ni	      2.20584      4.13413     -2.09377        -0.012772     -0.004467      0.017849
Ni	      2.17753      8.26848     -6.26033        -0.054161     -0.018666     -0.004019
Ni	     10.48380      6.14105     -4.10637        -0.024617      0.012953     -0.002576
Ni	     10.52824     10.21911     -8.25200        -0.020766      0.007788      0.011217
Ni	      2.19175      6.16929     -0.07613        -0.039923     -0.002088     -0.006010
Ni	      2.16685     10.31054     -4.23668        -0.050619      0.013975      0.010775
Ni	     10.47747      8.17539     -2.06243        -0.002487      0.005818     -0.009132
Ni	     10.54538     12.25066     -6.20606        -0.072427     -0.014118      0.008440
Ni	      4.23340      4.15594     -4.12899         0.080569      0.010230     -0.007795
Ni	      4.29576     12.28884     -4.19354         0.007143     -0.015218      0.021614
Ni	     12.59946      6.08747     -6.09833         0.055722     -0.023050     -0.015439
Ni	     12.59069     10.23673    -10.25395         0.037356     -0.000016     -0.005710
Ni	      4.25118      6.18767     -2.08359         0.026079     -0.004854     -0.010336
Ni	      4.28557     10.25773     -6.22941         0.039133     -0.004638      0.000801
Ni	     12.59081      8.13067     -4.07689         0.047828      0.018006      0.015853
Ni	     12.57610     12.27302     -8.23720         0.014923     -0.008106     -0.004942
Ni	      6.26073      6.22502     -4.16199         0.097039      0.035848     -0.047746
Ni	      6.41081     10.26480     -8.28958         0.081858      0.026906     -0.030350
Ni	     14.80755      8.18784     -6.19330        -0.018907      0.034206     -0.027452
Ni	     14.67737     12.18709    -10.16128        -0.030115      0.182594     -0.217524
Ni	      6.25648      8.25184     -2.12489         0.043907      0.054762     -0.034953
Ni	      6.41022     12.29574     -6.25154         0.088385      0.033256     -0.042525
Ni	     14.79556     10.23394     -4.13565        -0.031444      0.017317     -0.045610
Ni	     14.63270     14.21128     -8.12730        -0.039480      0.199227     -0.188713
O	      4.30746      4.28974     -2.18734         0.045812     -0.154617      0.184088
O	      4.24098      8.35977     -6.26609         0.079090     -0.151696      0.097230
O	     12.65448      6.11334     -4.16686         0.076630     -0.152079      0.159629
O	     12.40528     10.34927     -8.23620         0.182079     -0.163392      0.096650
O	      4.24040      6.15448     -0.19060         0.068353     -0.044631      0.161967
O	      4.22659     10.29332     -4.33226         0.078207     -0.137620      0.160666
O	     12.63638      8.22245     -2.05466         0.075392     -0.154357      0.140467
O	     12.42876     12.27860     -6.32805         0.184014     -0.053451      0.163072
O	      6.15987      4.29770     -4.25772         0.098118     -0.167294      0.118390
O	      6.43097     12.40749     -4.34026        -0.002465     -0.142617      0.151143
O	     15.08696     10.09695     -1.97345        -0.127542     -0.074670      0.087511
O	     14.67032     10.25448    -10.27669         0.001495     -0.151325      0.137265
O	      6.15619      6.33921     -2.07780         0.191832     -0.149389      0.072732
O	      6.53675     10.35667     -6.34069        -0.058367     -0.136500      0.120688
O	     15.03038      8.08355     -4.02186        -0.121097     -0.129069      0.079860
O	     14.70317     12.27378     -8.22428         0.050353     -0.137102      0.160118
O	      4.31213      6.23401     -3.98870        -0.106635      0.042247     -0.111432
O	      4.38111     10.22328     -8.13036        -0.092448      0.142564     -0.140873
O	     12.79256      7.97246     -6.03576        -0.018464      0.194545     -0.171779
O	     12.72380     12.29928    -10.17391        -0.121078      0.054088     -0.182720
O	      4.16643      8.07338     -1.98423        -0.056677      0.159855     -0.165960
O	      4.38217     12.16110     -6.20375        -0.099553      0.146912     -0.113860
O	     12.72751     10.09573     -3.90933        -0.072892      0.152410     -0.157565
O	     12.66837     14.23088     -8.24064        -0.118195      0.148879     -0.082696
O	      6.34803      6.03282      2.07879        -0.010404      0.148234     -0.151066
O	      6.27397     10.13154     -2.10912         0.018146      0.166515     -0.071533
O	     14.69819      8.13259     -8.15478         0.030271      0.162756     -0.108663
O	      6.42775      3.98944      0.05983        -0.000538      0.163422     -0.164162
O	      6.35871      8.11293     -4.03434         0.014387      0.167293     -0.127814
O	     14.68171     10.14240     -6.10261         0.006424      0.132189     -0.097474
O	      0.09547      6.26749     -4.22276        -0.002029     -0.131935      0.098785
O	      8.29086      4.23093     -2.18989         0.001446     -0.146195      0.164004
O	      8.41792      8.29237     -6.30829        -0.023807     -0.181645      0.130329
O	      0.07977      8.27229     -2.16666        -0.032161     -0.174075      0.110443
O	      8.36912      6.25475     -0.12832         0.007264     -0.148821      0.155044
O	      8.50057     10.33812     -4.15226        -0.018844     -0.165037      0.086835
O	      2.06153      4.10900     -0.15709         0.117736     -0.056690      0.174823
O	      1.96160      8.42087     -4.29946         0.045925     -0.171951      0.161270
O	     10.39455      6.17807     -2.20440         0.091028     -0.157456      0.145307
O	     10.45986     10.17219     -6.34723         0.115493     -0.044714      0.128196
O	      2.12102      2.17070     -2.08973         0.093660     -0.143545      0.082563
O	      2.04749     10.36748     -2.34480         0.081802     -0.147024      0.159900
O	     10.39389      4.23676     -4.13437         0.087221     -0.152543      0.132124
O	     10.61167      8.33181     -8.35145         0.057228     -0.146340      0.169083
O	      0.09400      4.12810     -2.10692        -0.063527      0.148952     -0.168832
O	     16.56373     12.47334    -10.48568         0.112592      0.128815     -0.076070
O	      8.24390      6.04405     -3.99839         0.027958      0.128353     -0.113923
O	      8.61932     10.06942     -8.26200        -0.165999      0.139731     -0.085050
O	      0.11222      6.15006     -0.05139        -0.015460      0.146152     -0.141092
O	     16.51825     14.51572     -8.44304         0.121033      0.085412     -0.098221
O	      8.34565      8.05971     -1.91890        -0.013880      0.131931     -0.142904
O	      8.61764     12.11055     -6.07917        -0.099059      0.159849     -0.127336
O	      2.35099      4.12581     -4.00087        -0.183283      0.063342     -0.168223
O	      2.14030     12.24249     -4.20050        -0.075685      0.145298     -0.144775
O	     10.54008      6.10069     -6.00340        -0.071520      0.169812     -0.161424
O	     10.54239     10.25093    -10.14446        -0.070252      0.060176     -0.174130
O	      2.37981      6.06219     -2.09364        -0.219601      0.137315     -0.104613
O	      2.11770     10.28618     -6.16974        -0.070445      0.157681     -0.151390
O	     10.52726      8.04003     -4.06638        -0.067212      0.151725     -0.127195
O	     10.47458     12.12023     -8.14910        -0.050711      0.147505     -0.177020
