# total energy = -596.48382391 eV
 
CRYSTAL
PRIMVEC
0.001873 4.045981 4.061568 
16.835316 4.045300 -4.054288 
-0.053659 8.183640 -8.214970 
PRIMCOORD
124 1
Li	      8.46634      6.10498      1.96849        -0.031223      0.030384     -0.024490
Li	      8.59449     10.21132     -2.12775        -0.021027      0.008493     -0.008324
Li	      0.14167      8.22830     -8.24678        -0.000275      0.000052     -0.011280
Li	      0.00679      8.18599     -0.13094        -0.029300      0.045706     -0.029992
Li	      8.45146      4.07072     -0.03259        -0.012414      0.033689     -0.035928
Li	      8.58657      8.18087     -4.13363        -0.028256     -0.001376      0.001449
Li	      0.14520     10.26463     -6.22069         0.001401     -0.004487     -0.002515
Li	      0.00350      6.12257     -2.08958        -0.009512      0.039239     -0.041079
Li	      2.17791      2.07404      0.00397         0.015046     -0.029740      0.009533
Li	      1.98733      6.06023     -4.14197        -0.006032      0.028083     -0.013357
Li	     10.44295      4.02197     -2.03474        -0.031933      0.016862     -0.015205
Li	     10.56958      8.18958     -6.12080         0.000503     -0.014397      0.008301
Li	      2.19705      4.10719      2.00992         0.034616     -0.020151      0.029609
Li	      1.95995      8.09431     -2.04658        -0.010412      0.018371     -0.027443
Li	     10.41068      6.01422      0.02586        -0.032346      0.015031     -0.030611
Li	     10.61539     10.22112     -4.13273        -0.007573     -0.018797      0.035282
Li	      4.16479      2.04438     -2.04043         0.013741     -0.029777      0.028532
Li	      3.98693     10.15240     -2.07871         0.005552      0.021575     -0.019949
Li	     12.41673      8.08905     -0.00904         0.002790     -0.001087      0.020270
Li	     12.57339      8.13601     -8.14748        -0.008751     -0.016374     -0.011351
Li	      4.17462      4.06973      0.02626         0.020377     -0.017757      0.004448
Li	      3.96431      8.10817     -4.09593         0.022412      0.018266     -0.001938
Li	     12.42158      6.05570     -2.01269        -0.004169      0.005730     -0.020061
Li	     12.56361     10.19601     -6.16961         0.008551     -0.021106      0.030101
Li	      6.41941      4.03087     -2.01999         0.020475     -0.030168      0.033494
Li	      6.29401      8.40508     -6.39092        -0.003683     -0.020932      0.021692
Li	     14.73485      6.33949     -4.30542         0.008703     -0.023174      0.016694
Li	     14.80805     10.14115     -8.16648         0.017125     -0.023889      0.021849
Li	      6.42648      6.04724      0.00019         0.017055     -0.032349      0.032049
Li	      6.26924     10.42142     -4.36787         0.002395     -0.027549      0.017175
Li	     14.71799      8.35198     -2.28442        -0.004534     -0.026504      0.010755
Li	     14.81205     12.17616     -6.12745         0.011633     -0.026300      0.026739
Ni	      0.01109      1.99656     -1.99817        -0.061389     -0.067352      0.072347
Ni	     16.76017     14.21945     -6.15255         0.019816     -0.032729      0.034252
Ni	      8.38202      8.08615      0.00036         0.014504     -0.024042      0.024031
Ni	      8.41542      8.10996     -8.13688        -0.053789     -0.077425      0.088576
Ni	      0.03155      4.02817      0.04286        -0.077639     -0.095254      0.082805
Ni	     16.77267     12.17812     -8.17159         0.022327     -0.014064      0.008488
Ni	      8.37502      6.07517     -2.04926         0.009578     -0.009828     -0.000516
Ni	      8.41697     10.13745     -6.08998        -0.103504     -0.098420      0.092740
Ni	      2.06449      4.06503     -2.05692        -0.031529     -0.012569      0.019548
Ni	      2.09519      8.16795     -6.17127        -0.032219      0.011378      0.009903
Ni	     10.54112      6.09928     -4.08846        -0.072020     -0.003075     -0.014225
Ni	     10.46084     10.19276     -8.17395        -0.078992     -0.033428     -0.003750
Ni	      2.07436      6.08613     -0.01861        -0.040342     -0.041526      0.013773
Ni	      2.09606     10.19524     -4.13459        -0.028335     -0.008976     -0.012471
Ni	     10.54124      8.12528     -2.05496        -0.074422      0.006388      0.000067
Ni	     10.46752     12.18767     -6.16483        -0.079627      0.021752      0.036677
Ni	      4.12772      8.12483     -0.05652         0.086177      0.045855     -0.054230
Ni	      4.19422      8.16669     -8.18254         0.006224     -0.033333      0.030912
Ni	     12.64116      6.09739     -6.09983        -0.018398     -0.027998      0.026899
Ni	     12.51912     14.23632     -6.18442         0.046025      0.020630     -0.010993
Ni	      4.14917      6.09870     -2.06456         0.035737      0.017490     -0.025335
Ni	      4.18141     10.19620     -6.16175         0.005492     -0.017247      0.011731
Ni	     12.62863      8.12682     -4.08050         0.000128     -0.014706      0.013905
Ni	     12.53851     12.22554     -8.20886         0.046971      0.026115     -0.029262
Ni	      6.25205      5.94810     -3.95288         0.085026      0.243978     -0.225035
Ni	      6.24473     10.26914     -8.26972         0.089681      0.038404     -0.039096
Ni	     14.69057      8.20278     -6.18656         0.091566      0.049865     -0.038107
Ni	     14.64031     12.07402    -10.08410         0.061355      0.213764     -0.209803
Ni	      6.27302      7.97874     -1.91492         0.069217      0.237779     -0.232570
Ni	      6.24025     12.29687     -6.23245         0.099034      0.036623     -0.033845
Ni	     14.68161     10.22839     -4.15239         0.102787      0.033937     -0.049453
Ni	     14.66340     14.09460     -8.06105         0.059642      0.203647     -0.207530
O	      3.95916      4.09039     -2.20632         0.105928     -0.037412      0.217392
O	      4.28687      8.17273     -6.24958         0.055092     -0.124906      0.125787
O	     12.73520      6.09240     -4.16828         0.058736     -0.062394      0.129958
O	     12.35332     10.30128     -8.22999         0.156046     -0.160011      0.032130
O	      3.94992      6.18215     -0.04585         0.157045     -0.185527      0.053720
O	      4.28669     10.27209     -4.13313         0.042377     -0.122670      0.119179
O	     12.73212      8.20667     -2.04495         0.067845     -0.133518      0.076371
O	     12.34478     12.22730     -6.26362         0.179066     -0.038807      0.184447
O	      6.24244      8.06702      0.01632        -0.033787     -0.187997      0.177802
O	      6.34607      8.34959     -8.36630        -0.009156     -0.101392      0.099365
O	     14.78631      6.28069     -6.28436         0.009114     -0.110224      0.113091
O	     14.60875     14.19391     -6.13109        -0.046715     -0.164584      0.154849
O	      6.22262      6.04993     -2.02448        -0.042576     -0.177671      0.179505
O	      6.29965     10.37247     -6.34240         0.026197     -0.100913      0.115794
O	     14.74947      8.30583     -4.25992        -0.002264     -0.114842      0.121395
O	     14.63517     12.16299     -8.15488        -0.011572     -0.171827      0.158452
O	      4.29887      6.06795     -4.13965        -0.137522      0.143094     -0.025915
O	      4.17859     10.08046     -8.16696        -0.087598      0.151111     -0.143198
O	     12.62379      8.01209     -6.08617        -0.068955      0.142927     -0.088618
O	     12.68277     12.25660    -10.18981        -0.118013      0.010600     -0.178122
O	      4.32146      8.15935     -2.01548        -0.127847      0.042098     -0.164747
O	      4.19258     12.19327     -6.02328        -0.088334      0.137033     -0.155664
O	     12.64006     10.12660     -3.94083        -0.086764      0.078785     -0.151694
O	     12.71531     14.18808     -8.25594        -0.125532      0.142598     -0.013999
O	      6.38658      1.95357     -1.94968         0.003065      0.139471     -0.140295
O	     14.74926      8.06772     -8.08095         0.004712      0.138682     -0.125554
O	      6.28034      3.97705      0.08624        -0.001029      0.126872     -0.122542
O	     14.70250     10.09667     -6.04927        -0.012833      0.131290     -0.134580
O	     16.69425      6.15068     -4.02715        -0.012326     -0.127523      0.055824
O	      0.01416      6.16091     -4.25297         0.006888     -0.165915      0.179554
O	      8.46409      4.17096     -2.08440        -0.009542     -0.169870      0.189775
O	      8.25063      8.20845     -6.11744         0.003003     -0.097011      0.091330
O	     16.65320      8.07723     -2.08698        -0.020255     -0.079879      0.131173
O	     -0.00635      8.27577     -2.15681        -0.000882     -0.180748      0.162068
O	      8.44338      6.11828     -0.15804        -0.005782     -0.173041      0.181729
O	      8.20052     10.14802     -4.16428        -0.008162     -0.099433      0.115316
O	      2.12179      4.18464      0.01110         0.047156     -0.084975      0.031468
O	      2.01999      8.27724     -4.25498         0.038343     -0.129164      0.138054
O	     10.46850      6.21600     -2.18112         0.059801     -0.145133      0.150289
O	     10.48085     10.28860     -6.10979         0.100293     -0.091185      0.025898
O	      2.05919      6.15560      1.88507         0.073968     -0.132801      0.092553
O	      2.00736     10.31061     -2.22962         0.060130     -0.144586      0.155353
O	     10.44766      8.23367     -0.14147         0.056208     -0.149196      0.150437
O	     10.48863     12.27986     -4.26046         0.079513     -0.107481      0.106650
O	      0.14616      4.02876     -1.89054        -0.091999      0.099338     -0.158681
O	     16.62504     12.14018    -10.22213         0.072350      0.134246     -0.121277
O	      8.23656      6.08924     -4.01557         0.076051      0.149110     -0.124254
O	      8.54211     10.13347     -8.02580        -0.098805      0.122368     -0.175997
O	      0.16517      5.95850      0.02429        -0.138142      0.179268     -0.106046
O	     16.63581     14.23934     -8.12181         0.068179      0.123720     -0.133168
O	      8.24347      8.05044     -2.05514         0.086830      0.116458     -0.158163
O	      8.55482     12.07433     -6.10244        -0.114238      0.189465     -0.130476
O	      2.04554      7.97634     -0.05192        -0.016957      0.134987     -0.052609
O	      2.10841      8.06888     -8.08859        -0.069776      0.138190     -0.136762
O	     10.54268      5.99749     -6.00470        -0.042258      0.129884     -0.143317
O	     10.44371     14.09180     -6.18739        -0.020663      0.113786     -0.042929
O	      2.07983      6.02135     -1.92577        -0.023353      0.147773     -0.120073
O	      2.11401     10.07980     -6.04837        -0.067120      0.126709     -0.134750
O	     10.56882      8.01150     -3.96938        -0.048514      0.135365     -0.140455
O	     10.45955     12.13189     -8.05823        -0.064687      0.156208     -0.127709
