# total energy = -548.95038085 eV
 
CRYSTAL
PRIMVEC
0.001470 3.807414 3.834107 
16.044210 3.855971 -3.876952 
-0.013938 7.723424 -7.777080 
PRIMCOORD
125 1
Li	      7.74053      5.44950      1.70576        -0.010040      0.043334      2.127766
Li	      7.60492      9.11826     -1.95423         0.066067      1.011238      0.718859
Li	     15.24104      7.29315     -0.06024         0.284963      0.318389      0.321193
Li	      0.00263      7.29575     -0.07336        -0.610883      0.307661      0.465024
Li	      7.74483      3.79834      0.05552         0.303172     -1.061959      0.666057
Li	      7.59556      7.37748     -3.72580         0.121983     -0.578891     -0.741655
Li	     15.23405      5.48815     -1.87692         0.314696     -0.337354     -0.052294
Li	      0.01966      5.49656     -1.87932        -0.776081     -0.403805     -0.069257
Li	      1.87000      1.80555      0.00538         0.056825     -1.057377      0.476545
Li	      1.87753      5.45853     -3.67498         0.414964     -0.409936     -0.141534
Li	      9.68851      3.66229     -1.84846         0.204035     -1.153974      0.593891
Li	      9.45091      7.31386     -5.54203        -0.024071     -0.102208     -0.271100
Li	      1.83294      3.61244      1.82010         0.176409     -1.116198      1.417547
Li	      1.90150      7.27200     -1.85134         0.027316      0.643656     -0.103638
Li	      9.50643      5.48078     -0.04229         0.789288     -0.231705      0.607632
Li	      9.43090      9.08879     -3.69193         0.642046      0.391989      0.088373
Li	      3.62762      5.41367      1.81173         0.999226     -0.196044      1.005167
Li	      3.87375      5.47371     -5.50030        -0.325279     -0.083846     -0.627299
Li	     11.51753      7.29401     -0.06752         0.245507     -0.109181      0.628352
Li	     11.45545      7.32059     -7.36176        -0.345071     -0.343108     -0.716900
Li	      3.62321      3.61107      0.03455         1.418160     -0.882070      0.426315
Li	      3.89450      7.31548     -3.75617        -0.368393     -0.213494      0.469083
Li	     11.42647      5.48971     -1.87496         0.731961     -0.539625      0.500562
Li	     11.45401      9.12476     -5.54387        -0.367410      0.427571     -0.035526
Li	      5.60705      3.70465     -1.88674         0.144784     -0.724571      0.509486
Li	      5.73020      7.28475     -5.50322         0.182184     -0.457624     -0.301425
Li	     13.34946      5.45995     -3.65807         0.606760     -0.390058      0.083834
Li	     13.37805      9.11912     -7.35138         0.578135     -0.213525     -0.456977
Li	      5.73500      5.60706     -0.19362         0.068354     -0.457280      1.091907
Li	      5.76527      9.07085     -3.69698        -0.445626      0.042080      0.557142
Li	     13.34857      7.26649     -1.84823         0.363209      0.013288      0.476885
Li	     13.36766     10.92972     -5.54046         0.381883      0.489985      0.011827
Ni	      0.01089      5.41984      1.81770        -2.995857     -0.590597      4.409947
Ni	      0.03584      5.47827     -5.51492        -1.579643     -3.850492     -3.760165
Ni	      7.58183      7.26365     -0.08838         0.021041      4.525025      4.050080
Ni	      7.58952     10.89182     -3.72544         0.328607      4.644866      4.079254
Ni	      0.01149      3.61754     -0.00031        -4.004852     -4.238751      3.680978
Ni	      0.03785      7.28650     -3.69187        -2.103916      0.814246      0.949072
Ni	      7.61846      5.49970     -1.82598        -0.040916     -4.366031      0.107951
Ni	      7.59682      9.12652     -5.49963         0.415213      0.193011     -3.381667
Ni	      1.94050      3.63350     -1.84326        -0.819818     -3.168411     -3.691442
Ni	      1.96389      7.31767     -5.54199        -1.595175     -0.329466     -4.134328
Ni	      9.48669      5.47604     -3.68777        -0.679022     -1.642299     -0.436290
Ni	      9.52481      9.18078     -7.40934        -2.436809     -0.539248     -0.921146
Ni	      1.94246      5.44944     -0.01791        -0.194477      1.036782      0.529270
Ni	      1.97410      9.11717     -3.72242        -1.217649      2.238812      2.943373
Ni	      9.46582      7.29445     -1.88480         0.224664      2.917590      2.933578
Ni	      9.48947     10.99169     -5.59098        -0.253882      3.401659      2.374172
Ni	      3.87419      7.23020     -0.00265         0.247990      4.378716      3.935612
Ni	      3.85150      7.32729     -7.37307        -0.062918     -2.698184     -3.965104
Ni	     11.36259      5.50068     -5.53136         1.080900     -4.465084     -3.870619
Ni	     11.38990      9.16894     -9.22129         0.371871     -3.528034     -4.650937
Ni	      3.84180      5.43554     -1.82310         0.466460     -0.585196     -0.789887
Ni	      3.85650      9.13640     -5.56592        -0.380925      2.110611     -0.363823
Ni	     11.36077      7.29823     -3.71420         1.020324      0.715930      0.914848
Ni	     11.38862     10.97949     -7.40439         0.140085      1.553630      0.399105
Ni	      5.74141      5.45697     -3.69314         0.679254     -1.490600     -0.699147
Ni	      5.74382      9.20397     -7.41755         2.614462      3.876324     -4.907734
Ni	     13.30493      7.32854     -5.56097         2.570239     -3.594291     -3.794297
Ni	     13.32396     10.99631     -9.23925         1.928610      1.770250     -5.888524
Ni	      5.75018      7.30808     -1.91174        -0.201904      3.770025      1.649124
Ni	      5.72684     10.87692     -5.48504        -0.106318      4.984721     -0.482433
Ni	     13.29811      9.13679     -3.74162         1.667990      0.693909      1.564451
Ni	     13.31708     12.80454     -7.41879         0.939066      5.459756     -3.679363
O	      3.85607      3.61182     -1.91706         0.655060     -1.312200      1.572391
O	      3.82675      7.43531     -5.59487         0.895268     -3.601481      2.005289
O	     11.38781      5.58068     -3.74982         1.249744     -3.365303      3.003493
O	     11.37558      9.24039     -7.47162         1.912292     -3.171710      2.913727
O	      3.95099      5.49557      0.00971         0.680901     -5.001890      1.582560
O	      3.87063      9.15616     -3.85487         0.966801      0.162628      3.912549
O	     11.35787      7.40594     -1.93936         0.897428      0.044803      2.980031
O	     11.36581     11.06269     -5.67294         1.096640      0.291658      3.682734
O	      5.85574      3.72911     -3.62998        -1.726185     -4.143788     -0.550281
O	      5.84615      7.41161     -7.39267        -1.393201     -2.640016     -1.117033
O	     13.28328      9.21307     -2.00810        -0.575369      0.745233      3.439294
O	     13.31543     12.87914     -5.68494         1.635080      0.176012      2.973636
O	      5.77348      5.49254     -1.96587        -0.862517     -1.695686      2.766359
O	      5.87049      9.14447     -5.63068        -1.384537     -2.678858      2.113698
O	     13.29168      7.40831     -3.82598         0.417342     -2.528957      1.694532
O	     13.31313     11.07478     -7.50130         2.255768     -2.976936      2.975938
O	      4.02221      5.34859     -3.64491        -3.268056      0.942652     -0.873113
O	      3.93792      9.14305     -7.30009        -2.476438      2.760986     -3.789857
O	     11.40826      7.20522     -5.47839        -1.026495      2.648816     -2.504985
O	     11.44597     10.88750     -9.13738        -1.163226      2.555964     -3.455095
O	      4.00591      7.24109     -1.72612        -1.856750      0.931763     -4.290644
O	      3.98654     10.88670     -5.56599        -3.019590      3.945617     -1.024641
O	     11.36146      9.01313     -3.67204        -0.160144      3.566626     -0.817333
O	     11.38932     12.71233     -7.31787        -1.324062      4.159795     -1.294131
O	      5.73480      5.41410     -5.37351         0.024988     -0.491346     -4.405000
O	     13.33981      3.56981     -3.57742         0.408147     -2.512877      1.016649
O	     13.31700     10.85502     -3.64527         0.486622      3.897574      0.432378
O	      5.72419      7.11622     -3.70492         0.086387      4.307448     -1.372024
O	     13.33178      5.37830     -1.75116         0.191466     -1.517161      2.467355
O	     13.32177      9.04822     -5.46439         0.762313      2.212536     -3.118197
O	     15.23305      5.56008     -3.78258         2.513904      0.029419     -0.894244
O	      0.02307      5.56325     -3.78776        -1.121296     -3.409787      2.188424
O	      7.60496      7.45671     -5.69904        -0.070884     -3.871248     -0.237255
O	     15.20046      7.36368     -1.95948         2.928861      0.036704      0.179597
O	      0.01281      7.38031     -1.97031        -0.871139     -0.000720      3.764381
O	      7.53554      5.54706     -0.00834         0.411243     -3.387270      2.729227
O	      7.62510      9.13866     -3.74422        -0.101258     -2.228196      3.128111
O	      1.88739      3.73053     -0.04448         0.125390     -3.663736      3.685188
O	      1.93611      7.38789     -3.79815         1.387152     -2.397236      3.116803
O	      9.42204      5.46331     -1.96569         2.571648     -2.367546      3.822333
O	      9.31685      9.18845     -5.70958         2.387435     -1.606446      3.343572
O	      1.87811      5.45770      1.70588         0.283320     -0.984157      3.803408
O	      1.95538      5.59361     -5.62751         1.064046     -3.388711      0.303481
O	      9.29739      3.74024     -3.67712         3.112811     -4.184660      0.408659
O	      9.31714      7.48118     -7.42678         2.306535     -3.979269     -0.966118
O	      0.00492      3.53759     -1.73901        -1.240104      0.377157     -3.322742
O	      0.01566      7.20814     -5.42680        -1.761392      2.461737     -3.009025
O	      7.49596      5.34066     -3.63041         1.480256     -0.312127     -2.670635
O	      6.72883      2.83478     -0.93927        -0.491194     -2.023023      0.698684
O	     15.23248      9.01470     -3.60164        -0.483199      3.914314     -3.877841
O	      0.01605      9.01646     -3.60527        -1.397044      3.698719     -0.044524
O	      7.52346      7.28410     -1.88130         0.855419      2.823465     -1.860957
O	      7.52483     10.92577     -5.51134         1.085047      2.834307     -2.494826
O	      2.00139      7.17247     -0.00169        -1.844629      2.870584     -0.064364
O	      1.95952     10.84733     -3.64879        -0.989665      3.457712     -0.639933
O	      9.50911      5.46781     -5.38892        -0.761376     -0.280866     -3.949318
O	      9.47789      9.18857     -9.10550        -1.517792      0.311371     -4.401974
O	      1.98311      5.42863     -1.74101        -1.473279      2.719418     -2.591037
O	      1.94633      9.04936     -5.46291        -1.404017      2.749166     -3.592079
O	      9.50250      7.17716     -3.68084        -1.510294      3.442574     -2.090439
O	      9.47153     10.88356     -7.41161        -1.751953      4.021909     -2.214586
