# total energy = -568.71140007 eV
 
CRYSTAL
PRIMVEC
0.001486 3.847493 3.874466 
16.213096 3.896560 -3.917762 
-0.014085 7.804723 -7.858944 
PRIMCOORD
125 1
Li	      7.90433      5.56483      1.74186        -0.040298      0.021626      1.631943
Li	      7.76587      9.31124     -1.99559         0.037969      0.780587      0.498712
Li	     15.56358      7.44750     -0.06152         0.261491      0.266195      0.219764
Li	      0.00268      7.45015     -0.07491        -0.507918      0.232566      0.315870
Li	      7.90874      3.87873      0.05670         0.169486     -0.826732      0.503814
Li	      7.75631      7.53361     -3.80464         0.088946     -0.406563     -0.583681
Li	     15.55645      5.60430     -1.91664         0.314149     -0.264284     -0.047398
Li	      0.02006      5.61288     -1.91909        -0.581427     -0.288111     -0.079840
Li	      1.90957      1.84376      0.00549         0.008068     -0.842682      0.427839
Li	      1.91728      5.57405     -3.75276         0.294933     -0.244035     -0.111510
Li	      9.89354      3.73979     -1.88758         0.125114     -0.881299      0.468835
Li	      9.65092      7.46865     -5.65932        -0.009127     -0.092285     -0.187478
Li	      1.87174      3.68889      1.85862         0.143451     -0.878848      1.113685
Li	      1.94173      7.42590     -1.89052         0.005317      0.455683     -0.101408
Li	      9.70762      5.59677     -0.04319         0.599615     -0.209960      0.459117
Li	      9.63049      9.28115     -3.77007         0.538669      0.270881      0.053364
Li	      3.70439      5.52823      1.85008         0.721527     -0.143098      0.795286
Li	      3.95573      5.58955     -5.61671        -0.247463     -0.064480     -0.470687
Li	     11.76129      7.44838     -0.06894         0.202448     -0.082085      0.470730
Li	     11.69790      7.47553     -7.51757        -0.219076     -0.285266     -0.533291
Li	      3.69988      3.68749      0.03528         1.022314     -0.701960      0.318361
Li	      3.97692      7.47030     -3.83566        -0.309003     -0.117825      0.296373
Li	     11.66831      5.60589     -1.91465         0.552668     -0.384148      0.369804
Li	     11.69642      9.31787     -5.66120        -0.222581      0.326323      0.031385
Li	      5.72571      3.78305     -1.92666         0.064447     -0.571682      0.413111
Li	      5.85147      7.43892     -5.61968         0.132488     -0.345775     -0.230673
Li	     13.63197      5.57550     -3.73548         0.495384     -0.242876     -0.022175
Li	     13.66118      9.31211     -7.50696         0.461216     -0.199107     -0.272218
Li	      5.85638      5.72572     -0.19772         0.029801     -0.386472      0.803472
Li	      5.88727      9.26282     -3.77522        -0.350902      0.018207      0.401430
Li	     13.63108      7.42027     -1.88734         0.297937      0.090040      0.271221
Li	     13.65055     11.16102     -5.65771         0.316671      0.327732      0.063920
Ni	      0.01112      5.53454      1.85617        -2.874302     -0.733336      4.515222
Ni	      0.03660      5.59421     -5.63164        -1.108162     -2.899054     -2.779712
Ni	      7.74230      7.41738     -0.09025         0.024323      3.376472      3.173907
Ni	      7.75014     11.12233     -3.80429         0.204468      3.560432      3.092447
Ni	      0.01173      3.69410     -0.00031        -3.610793     -4.191737      2.875198
Ni	      0.03865      7.44072     -3.77001        -1.456247      0.581206      0.749937
Ni	      7.77970      5.61609     -1.86463        -0.120142     -3.260512      0.007755
Ni	      7.75759      9.31966     -5.61602         0.274523      0.129599     -2.547760
Ni	      1.98157      3.71039     -1.88228        -0.603391     -2.187722     -2.607133
Ni	      2.00545      7.47254     -5.65928        -1.253903     -0.254914     -3.052994
Ni	      9.68747      5.59193     -3.76582        -0.479622     -1.157457     -0.373439
Ni	      9.72639      9.37508     -7.56615        -1.840488     -0.366351     -0.726196
Ni	      1.98357      5.56476     -0.01829         0.006286      0.761398      0.243421
Ni	      2.01587      9.31012     -3.80120        -0.943634      1.728431      2.103999
Ni	      9.66616      7.44883     -1.92469         0.224482      2.128218      2.080355
Ni	      9.69029     11.22431     -5.70930        -0.183915      2.477569      1.704401
Ni	      3.95618      7.38320     -0.00271         0.412737      3.102807      2.705102
Ni	      3.93302      7.48237     -7.52911        -0.057934     -1.962783     -2.909961
Ni	     11.60306      5.61709     -5.64842         0.939002     -3.179395     -2.873994
Ni	     11.63095      9.36299     -9.41644         0.247913     -2.602058     -3.393195
Ni	      3.92312      5.55059     -1.86169        -0.090463     -0.391490     -0.590307
Ni	      3.93811      9.32975     -5.68372        -0.351067      1.572424     -0.227376
Ni	     11.60121      7.45269     -3.79281         0.910511      0.713047      0.677334
Ni	     11.62964     11.21185     -7.56109         0.097154      1.180555      0.321419
Ni	      5.86293      5.57246     -3.77130         0.400963     -1.150798     -0.639736
Ni	      5.86539      9.39876     -7.57453         1.991778      3.021316     -3.785581
Ni	     13.58651      7.48364     -5.67866         1.882740     -2.600914     -2.800270
Ni	     13.60593     11.22902     -9.43479         1.342046      1.660989     -4.650936
Ni	      5.87187      7.46275     -1.95219        -0.138679      2.842616      1.320759
Ni	      5.84805     11.10711     -5.60113        -0.102943      3.696447     -0.429727
Ni	     13.57955      9.33016     -3.82081         1.146390      0.573055      1.023144
Ni	     13.59892     13.07552     -7.57580         0.672545      4.491560     -2.893133
O	      3.93768      3.68826     -1.95762         0.477964     -2.543952      0.121733
O	      3.90773      7.59267     -5.71328         0.661160     -2.624529      1.471849
O	     11.62881      5.69879     -3.82917         0.855666     -2.484279      2.193763
O	     11.61633      9.43595     -7.62974         1.372730     -2.300804      2.041397
O	      4.03461      5.61187      0.00992         0.506657     -2.519537      2.010714
O	      3.95254      9.34993     -3.93644         0.922197      0.071339      2.810104
O	     11.59824      7.56267     -1.98040         0.618694      0.047069      2.329742
O	     11.60635     11.29681     -5.79299         0.787464      0.222923      2.656364
O	      5.97968      3.80802     -3.70679        -1.356474     -3.037162     -0.406286
O	      5.96986      7.56847     -7.54912        -1.035780     -1.987867     -0.829175
O	     13.56440      9.40805     -2.05060        -0.522031      0.596523      2.680676
O	     13.59722     13.15170     -5.80525         1.321078      0.074751      2.138927
O	      5.89566      5.60878     -2.00748        -0.397057     -1.177438      2.054449
O	      5.99473      9.33799     -5.74984        -0.932430     -1.986399      1.573479
O	     13.57298      7.56509     -3.90695         0.178113     -1.993789      1.147740
O	     13.59487     11.30915     -7.66005         1.737401     -2.161493      1.932926
O	      4.10733      5.46178     -3.72205        -2.230073     -0.121615     -1.730886
O	      4.02126      9.33654     -7.45459        -1.810468      2.056166     -2.767674
O	     11.64970      7.35771     -5.59434        -0.794001      1.756728     -1.875480
O	     11.68820     11.11792     -9.33077        -0.742734      1.895519     -2.520364
O	      4.09069      7.39434     -1.76266        -1.359730      1.879345     -1.660611
O	      4.07090     11.11710     -5.68378        -2.239244      2.933918     -0.862146
O	     11.60191      9.20388     -3.74975        -0.692582      2.474464     -0.600998
O	     11.63035     12.98136     -7.47274        -0.894361      3.110209     -0.977435
O	      5.85618      5.52868     -5.48724         0.107322     -0.345993     -3.172084
O	     13.62212      3.64535     -3.65312         0.325637     -2.320403      1.097954
O	     13.59883     11.08476     -3.72242         0.421790      3.051446      0.307246
O	      5.84533      7.26682     -3.78333        -0.003643      3.102079     -1.042604
O	     13.61394      5.49213     -1.78823         0.255125     -1.388635      2.153164
O	     13.60371      9.23971     -5.58003         0.594069      1.621415     -2.453820
O	     15.55543      5.67775     -3.86262         2.444234      0.036841     -0.921464
O	      0.02357      5.68099     -3.86792        -0.869835     -2.480007      1.608285
O	      7.76591      7.61451     -5.81965        -0.049862     -2.789529     -0.134246
O	     15.52215      7.51952     -2.00094         2.590357      0.384483     -0.185275
O	      0.01310      7.53651     -2.01202        -0.654011     -0.030499      2.759510
O	      7.69502      5.66445     -0.00851         0.360842     -2.408703      1.961556
O	      7.78646      9.33207     -3.82345        -0.080189     -1.662689      2.323761
O	      1.92733      3.80948     -0.04542         0.048425     -2.644997      2.843467
O	      1.97709      7.54424     -3.87854         1.027054     -1.727558      2.323987
O	      9.62143      5.57892     -2.00728         1.859009     -1.789059      2.849721
O	      9.51404      9.38291     -5.83042         1.718627     -1.153595      2.423283
O	      1.91785      5.57321      1.74198         0.086774     -0.924589      2.770639
O	      1.99676      5.71199     -5.74661         0.736463     -2.399201      0.359390
O	      9.49416      3.81940     -3.75494         2.285542     -3.156040      0.307435
O	      9.51432      7.63951     -7.58396         1.753975     -2.921589     -0.758088
O	      0.00503      3.61246     -1.77581        -0.902992      0.392928     -2.408878
O	      0.01598      7.36069     -5.54165        -1.468673      1.785506     -2.142807
O	      7.65460      5.45369     -3.70724         1.083658     -0.239590     -1.894986
O	      6.87123      2.89478     -0.95915        -0.473445     -1.604262      0.656470
O	     15.55485      9.20547     -3.67786         0.608206      3.546320     -3.479939
O	      0.01641      9.20728     -3.68157        -1.384204      2.681123      0.001036
O	      7.68269      7.43825     -1.92112         0.651497      2.066572     -1.350311
O	      7.68407     11.15698     -5.62797         0.827532      2.050643     -1.857382
O	      2.04375      7.32427     -0.00173        -1.181396      2.037904     -0.189918
O	      2.00099     11.07690     -3.72601        -0.688068      2.567292     -0.521846
O	      9.71037      5.58353     -5.50298        -0.601588     -0.169799     -2.822327
O	      9.67847      9.38303     -9.29821        -1.130785      0.271660     -3.228900
O	      2.02507      5.54352     -1.77786        -1.357493      1.994525     -1.755231
O	      1.98751      9.24087     -5.57852        -0.939557      1.978821     -2.798849
O	      9.70361      7.32905     -3.75874        -1.121643      2.467118     -1.527081
O	      9.67197     11.11389     -7.56846        -1.269405      2.950085     -1.634308
