# total energy = -576.72039158 eV
 
CRYSTAL
PRIMVEC
0.001493 3.867532 3.894646 
16.297540 3.916854 -3.938167 
-0.014159 7.845373 -7.899876 
PRIMCOORD
125 1
Li	      7.98689      5.62295      1.76006        -0.046319      0.013301      1.386192
Li	      7.84697      9.40848     -2.01642         0.035525      0.666386      0.405366
Li	     15.72612      7.52527     -0.06216         0.247504      0.221145      0.179735
Li	      0.00271      7.52796     -0.07570        -0.452537      0.206516      0.251003
Li	      7.99133      3.91923      0.05729         0.119764     -0.708461      0.432394
Li	      7.83732      7.61229     -3.84438         0.087661     -0.334964     -0.503075
Li	     15.71893      5.66283     -1.93666         0.291303     -0.218854     -0.038531
Li	      0.02028      5.67151     -1.93914        -0.504376     -0.225412     -0.085557
Li	      1.92952      1.86302      0.00554        -0.014340     -0.751021      0.405298
Li	      1.93730      5.63226     -3.79196         0.234735     -0.180277     -0.124163
Li	      9.99688      3.77886     -1.90730         0.092985     -0.751061      0.405338
Li	      9.75170      7.54665     -5.71842        -0.000419     -0.085180     -0.153116
Li	      1.89129      3.72741      1.87803         0.117013     -0.775899      0.981819
Li	      1.96202      7.50345     -1.91026        -0.003311      0.395882     -0.101981
Li	      9.80900      5.65522     -0.04364         0.506114     -0.189698      0.391024
Li	      9.73107      9.37808     -3.80944         0.468465      0.209712      0.043960
Li	      3.74309      5.58597      1.86939         0.607946     -0.139563      0.682849
Li	      3.99703      5.64792     -5.67537        -0.220651     -0.038159     -0.407064
Li	     11.88411      7.52616     -0.06966         0.177283     -0.069629      0.394836
Li	     11.82006      7.55360     -7.59608        -0.163437     -0.258587     -0.441935
Li	      3.73852      3.72600      0.03565         0.863998     -0.611158      0.283048
Li	      4.01845      7.54832     -3.87572        -0.261925     -0.086244      0.237158
Li	     11.79016      5.66444     -1.93464         0.472458     -0.318919      0.313080
Li	     11.81857      9.41518     -5.72032        -0.173618      0.273086      0.048109
Li	      5.78551      3.82256     -1.94679         0.052394     -0.492458      0.367004
Li	      5.91259      7.51661     -5.67837         0.109273     -0.302390     -0.191330
Li	     13.77434      5.63373     -3.77449         0.430618     -0.178030     -0.040579
Li	     13.80386      9.40936     -7.58537         0.408999     -0.191550     -0.207643
Li	      5.91754      5.78552     -0.19978         0.021734     -0.335875      0.675310
Li	      5.94875      9.35956     -3.81465        -0.313307      0.007687      0.338132
Li	     13.77344      7.49776     -1.90705         0.260912      0.107236      0.193090
Li	     13.79312     11.27759     -5.71680         0.290348      0.261912      0.077924
Ni	      0.01123      5.59235      1.87556        -2.779183     -0.745267      4.323018
Ni	      0.03699      5.65263     -5.69045        -0.915782     -2.466287     -2.335593
Ni	      7.82316      7.49484     -0.09119         0.013342      2.864764      2.761512
Ni	      7.83109     11.23849     -3.84402         0.158321      3.056387      2.639543
Ni	      0.01186      3.73269     -0.00032        -3.373337     -3.952011      2.509335
Ni	      0.03905      7.51842     -3.80937        -1.180314      0.480437      0.659400
Ni	      7.86094      5.67474     -1.88409        -0.106370     -2.771510     -0.000149
Ni	      7.83861      9.41699     -5.67467         0.220427      0.089045     -2.168897
Ni	      2.00227      3.74915     -1.90194        -0.511424     -1.797276     -2.170455
Ni	      2.02640      7.55059     -5.71839        -1.086261     -0.211029     -2.569907
Ni	      9.78864      5.65034     -3.80515        -0.397267     -0.943913     -0.329829
Ni	      9.82797      9.47299     -7.64517        -1.576008     -0.296956     -0.630443
Ni	      2.00428      5.62288     -0.01848         0.060013      0.675850      0.185289
Ni	      2.03692      9.40735     -3.84089        -0.815454      1.489416      1.723761
Ni	      9.76711      7.52662     -1.94480         0.208187      1.783752      1.708551
Ni	      9.79150     11.34154     -5.76893        -0.160125      2.071615      1.411377
Ni	      3.99750      7.46031     -0.00273         0.346796      2.617924      2.281870
Ni	      3.97409      7.56051     -7.60774        -0.064171     -1.636829     -2.440439
Ni	     11.72424      5.67576     -5.70741         0.833656     -2.624232     -2.412095
Ni	     11.75242      9.46077     -9.51478         0.190343     -2.190062     -2.835995
Ni	      3.96408      5.60855     -1.88113        -0.079008     -0.337192     -0.522609
Ni	      3.97925      9.42719     -5.74307        -0.323153      1.337503     -0.172772
Ni	     11.72237      7.53052     -3.83242         0.816395      0.659718      0.575479
Ni	     11.75111     11.32895     -7.64006         0.074213      1.008859      0.281838
Ni	      5.92416      5.63066     -3.81069         0.338290     -0.959962     -0.551741
Ni	      5.92664      9.49692     -7.65363         1.722037      2.623330     -3.260841
Ni	     13.72840      7.56179     -5.73796         1.574920     -2.178196     -2.350246
Ni	     13.74803     11.34630     -9.53332         1.120151      1.565053     -4.062674
Ni	      5.93318      7.54068     -1.97258        -0.130302      2.394581      1.079275
Ni	      5.90912     11.22312     -5.65962        -0.086606      3.119704     -0.401969
Ni	     13.72137      9.42761     -3.86071         0.904276      0.482524      0.845151
Ni	     13.74094     13.21208     -7.65492         0.590852      3.995726     -2.537719
O	      3.97881      3.72678     -1.97807         0.404347     -2.200287      0.112708
O	      3.94855      7.67197     -5.77295         0.580881     -2.195476      1.236634
O	     11.75026      5.75830     -3.86917         0.695812     -2.090728      1.810267
O	     11.73765      9.53450     -7.70943         1.150406     -1.913811      1.673669
O	      4.07675      5.67049      0.01002         0.396552     -2.086248      1.739330
O	      3.99382      9.44757     -3.97756         0.870070      0.042003      2.326275
O	     11.71937      7.64165     -2.00109         0.504976      0.049482      2.035876
O	     11.72757     11.41479     -5.85350         0.660059      0.180574      2.200521
O	      6.04212      3.84779     -3.74551        -1.139336     -2.568843     -0.352342
O	      6.03220      7.64751     -7.62796        -0.866645     -1.688994     -0.687805
O	     13.70606      9.50631     -2.07201        -0.423622      0.529556      2.268107
O	     13.73923     13.28906     -5.86589         1.174624      0.055765      1.771988
O	      5.95723      5.66736     -2.02845        -0.326895     -0.989419      1.720386
O	      6.05735      9.43553     -5.80989        -0.744406     -1.678946      1.330255
O	     13.71473      7.64410     -3.94775         0.162831     -1.692791      0.900860
O	     13.73686     11.42727     -7.74006         1.478532     -1.799800      1.513228
O	      4.15022      5.51882     -3.76092        -1.837165     -0.110118     -1.520949
O	      4.06325      9.43406     -7.53244        -1.533524      1.749640     -2.330304
O	     11.77136      7.43455     -5.65277        -0.684783      1.397468     -1.614107
O	     11.81027     11.23403     -9.42821        -0.582023      1.603605     -2.100493
O	      4.13341      7.47157     -1.78106        -1.118798      1.594335     -1.351873
O	      4.11342     11.23320     -5.74315        -1.902850      2.479407     -0.774341
O	     11.72308      9.30001     -3.78892        -0.727715      2.044522     -0.503789
O	     11.75181     13.11693     -7.55078        -0.723556      2.622162     -0.822643
O	      5.91733      5.58642     -5.54454         0.092141     -0.270110     -2.630221
O	     13.76439      3.68342     -3.69128         0.292651     -2.170359      1.098650
O	     13.74085     11.20052     -3.76130         0.396258      2.619703      0.237693
O	      5.90637      7.34271     -3.82283        -0.002916      2.580374     -0.876296
O	     13.75611      5.54948     -1.80690         0.233449     -1.298574      1.976861
O	     13.74578      9.33620     -5.63831         0.518673      1.375932     -2.107674
O	     15.71788      5.73704     -3.90296         2.356149      0.098315     -0.952778
O	      0.02381      5.74032     -3.90831        -0.761822     -2.078627      1.364523
O	      7.84701      7.69404     -5.88043        -0.042661     -2.312633     -0.091185
O	     15.68427      7.59805     -2.02184         2.371596      0.439876     -0.262935
O	      0.01322      7.61522     -2.03302        -0.562550     -0.059292      2.320224
O	      7.77539      5.72362     -0.00860         0.312025     -2.004106      1.662272
O	      7.86779      9.42953     -3.86339        -0.066249     -1.407301      1.966070
O	      1.94746      3.84926     -0.04589        -0.012801     -2.195954      2.423380
O	      1.99774      7.62303     -3.91904         0.854743     -1.442351      1.977907
O	      9.72192      5.63719     -2.02825         1.573211     -1.515587      2.409856
O	      9.61340      9.48090     -5.89130         1.438895     -0.961751      2.023965
O	      1.93787      5.63141      1.76017         0.015531     -0.851718      2.303621
O	      2.01762      5.77165     -5.80663         0.602024     -1.986854      0.359162
O	      9.59332      3.85929     -3.79417         1.922141     -2.689606      0.263990
O	      9.61370      7.71930     -7.66317         1.502878     -2.449110     -0.645783
O	      0.00508      3.65018     -1.79436        -0.770966      0.349886     -2.005315
O	      0.01615      7.43756     -5.59952        -1.366277      1.486139     -1.765971
O	      7.73453      5.51064     -3.74595         0.888920     -0.206683     -1.611753
O	      6.94299      2.92501     -0.96916        -0.454085     -1.407515      0.614625
O	     15.71730      9.30161     -3.71627         0.960883      3.240836     -3.180122
O	      0.01657      9.30344     -3.72002        -1.335061      2.229538      0.013834
O	      7.76292      7.51594     -1.94118         0.546983      1.742874     -1.123445
O	      7.76432     11.27350     -5.68675         0.706299      1.707196     -1.573708
O	      2.06509      7.40076     -0.00175        -1.006186      1.646515     -0.196491
O	      2.02188     11.19258     -3.76492        -0.565037      2.177420     -0.470070
O	      9.81178      5.64184     -5.56044        -0.546313     -0.129815     -2.341670
O	      9.77956      9.48103     -9.39532        -0.943097      0.251933     -2.707336
O	      2.04622      5.60141     -1.79642        -1.171581      1.664657     -1.412750
O	      2.00827      9.33739     -5.63679        -0.751825      1.646126     -2.407050
O	      9.80496      7.40559     -3.79799        -0.992998      2.040696     -1.273549
O	      9.77298     11.22996     -7.64750        -1.031041      2.481929     -1.390712
