# total energy = -91.91835272 eV
 
CRYSTAL
PRIMVEC
0.000003 2.064528 2.064504 
4.049962 0.000024 -0.000016 
-0.000003 8.533892 -8.533986 
PRIMCOORD
16 1
Li	      2.02784      2.19017     -0.12492        -0.000081      0.023446     -0.023082
Li	      0.00308      4.29448     -0.16577        -0.001450     -0.009275      0.009895
Li	      0.00307      4.26129     -4.26084         0.000555     -0.021545      0.021130
Li	      2.02798      6.33500     -4.26736         0.001012     -0.044106      0.042932
Mn	      0.00274      0.05059     -0.04902        -0.000651      0.103113     -0.103945
Mn	      2.02803      4.22439     -2.15982        -0.000160     -0.021972      0.022210
Ni	      0.00283      6.25952     -6.25775         0.001041      0.047478     -0.049315
Ni	      2.02776      8.46094     -6.39488         0.000042      0.065065     -0.064693
O	      2.02779      6.45802     -6.45651        -0.001290     -0.137092      0.137610
O	      0.00277      8.63226     -6.56627        -0.000233      0.006007     -0.005140
O	      2.02810      4.09219     -4.09212        -0.000018      0.027445     -0.027195
O	      0.00296      6.40384     -4.33757         0.000671     -0.099559      0.101350
O	      2.02812      2.25473     -2.25464         0.000993     -0.012721      0.012795
O	      0.00328      4.20688     -2.14248        -0.002728      0.022792     -0.022769
O	      2.02772      8.50583     -8.50424         0.002176      0.074484     -0.074015
O	      0.00274      1.96906      0.09697         0.000121     -0.023561      0.022231
