# total energy = -589.31682953 eV
 
CRYSTAL
PRIMVEC
0.001509 3.907610 3.935005 
16.466426 3.957444 -3.978977 
-0.014305 7.926672 -7.981740 
PRIMCOORD
125 1
Li	      8.15328      5.74009      1.79672        -0.056237     -0.001598      0.938432
Li	      8.01044      9.60449     -2.05844         0.022401      0.457629      0.254014
Li	     16.05375      7.68205     -0.06345         0.219535      0.135262      0.123759
Li	      0.00277      7.68479     -0.07727        -0.340247      0.153617      0.146024
Li	      8.15782      4.00088      0.05849         0.030137     -0.472282      0.299787
Li	      8.00059      7.77088     -3.92447         0.056526     -0.211866     -0.345747
Li	     16.04639      5.78080     -1.97700         0.246909     -0.142494     -0.021061
Li	      0.02071      5.78966     -1.97953        -0.359791     -0.123912     -0.090168
Li	      1.96972      1.90182      0.00566        -0.042233     -0.567126      0.339505
Li	      1.97766      5.74960     -3.87094         0.145281     -0.073046     -0.118836
Li	     10.20515      3.85758     -1.94703         0.038990     -0.511435      0.287958
Li	      9.95487      7.70387     -5.83756        -0.000505     -0.070979     -0.093199
Li	      1.93068      3.80506      1.91716         0.063265     -0.577644      0.718921
Li	      2.00290      7.65978     -1.95007        -0.014004      0.289127     -0.102122
Li	     10.01335      5.77304     -0.04455         0.331722     -0.148232      0.267319
Li	      9.93379      9.57345     -3.88880         0.324156      0.124300      0.026256
Li	      3.82107      5.70234      1.90834         0.422507     -0.128576      0.471791
Li	      4.08031      5.76558     -5.79359        -0.153529     -0.001213     -0.282793
Li	     12.13170      7.68296     -0.07112         0.119457     -0.041387      0.255365
Li	     12.06631      7.71096     -7.75433        -0.090693     -0.189692     -0.277781
Li	      3.81641      3.80363      0.03639         0.599497     -0.431517      0.214168
Li	      4.10216      7.70557     -3.95646        -0.187814     -0.041687      0.145442
Li	     12.03579      5.78244     -1.97494         0.300413     -0.200784      0.204344
Li	     12.06478      9.61133     -5.83949        -0.099229      0.180208      0.064191
Li	      5.90603      3.90220     -1.98734         0.027767     -0.340412      0.273397
Li	      6.03576      7.67320     -5.79667         0.056975     -0.202357     -0.126313
Li	     14.06130      5.75110     -3.85313         0.308570     -0.076584     -0.060269
Li	     14.09142      9.60539     -7.74339         0.317365     -0.157791     -0.098931
Li	      6.04081      5.90605     -0.20395         0.011309     -0.250911      0.456180
Li	      6.07269      9.55455     -3.89412        -0.223843     -0.005734      0.221658
Li	     14.06038      7.65397     -1.94679         0.195284      0.109719      0.074254
Li	     14.08048     11.51254     -5.83590         0.240727      0.150996      0.088250
Ni	      0.01148      5.70885      1.91463        -2.440560     -0.651909      3.506030
Ni	      0.03776      5.77040     -5.80901        -0.591956     -1.653759     -1.528536
Ni	      7.98613      7.65098     -0.09309        -0.009131      1.904959      1.958637
Ni	      7.99424     11.47262     -3.92410         0.060771      2.100487      1.778968
Ni	      0.01211      3.81044     -0.00032        -2.700432     -3.087392      1.784956
Ni	      0.03986      7.67505     -3.88874        -0.727495      0.286842      0.455051
Ni	      8.02471      5.79296     -1.92334        -0.079465     -1.887436      0.006681
Ni	      8.00191      9.61317     -5.79289         0.097993      0.038910     -1.470360
Ni	      2.04397      3.82725     -1.94156        -0.328879     -1.115236     -1.402697
Ni	      2.06861      7.70789     -5.83752        -0.748584     -0.131352     -1.696649
Ni	      9.99257      5.76805     -3.88442        -0.271167     -0.598900     -0.234307
Ni	     10.03272      9.67035     -7.80445        -1.095561     -0.181076     -0.438788
Ni	      2.04604      5.74002     -0.01887         0.098483      0.480176      0.090028
Ni	      2.07937      9.60333     -3.92092        -0.552926      1.033733      1.055425
Ni	      9.97058      7.68342     -1.98531         0.147517      1.144790      1.071906
Ni	      9.99548     11.57782     -5.88911        -0.129678      1.342996      0.912765
Ni	      4.08078      7.61573     -0.00279         0.246281      1.729895      1.514881
Ni	      4.05688      7.71802     -7.76624        -0.052327     -1.061537     -1.582500
Ni	     11.96848      5.79400     -5.82631         0.606092     -1.683612     -1.578534
Ni	     11.99725      9.65787     -9.71300         0.091407     -1.443144     -1.854468
Ni	      4.04668      5.72539     -1.92032        -0.044148     -0.230750     -0.382576
Ni	      4.06214      9.62358     -5.86271        -0.221305      0.878640     -0.095265
Ni	     11.96657      7.68740     -3.91226         0.604577      0.499220      0.385201
Ni	     11.99592     11.56496     -7.79923         0.025784      0.678405      0.191854
Ni	      6.04757      5.74796     -3.89007         0.226287     -0.618356     -0.373347
Ni	      6.05011      9.69476     -7.81308         1.197522      1.858385     -2.279100
Ni	     14.01440      7.71933     -5.85750         1.055725     -1.438027     -1.554068
Ni	     14.03445     11.58267     -9.73193         0.774368      1.294651     -2.936687
Ni	      6.05679      7.69778     -2.01368        -0.105144      1.566633      0.668855
Ni	      6.03223     11.45692     -5.77753        -0.062576      2.114055     -0.353167
Ni	     14.00723      9.62401     -3.94114         0.510519      0.330485      0.550435
Ni	     14.02719     13.48733     -7.81439         0.453177      3.004317     -1.835532
O	      4.06170      3.80442     -2.01928         0.264582     -1.524516      0.125888
O	      4.03081      7.83180     -5.89321         0.492366     -1.437219      0.827947
O	     11.99504      5.87826     -3.94977         0.457106     -1.391659      1.168769
O	     11.98216      9.73313     -7.87003         0.777673     -1.235637      1.059094
O	      4.16167      5.78861      0.01023         0.223600     -1.380426      1.215118
O	      4.07702      9.64440     -4.06042         0.670906     -0.026184      1.499486
O	     11.96352      7.80085     -2.04278         0.333150      0.014848      1.432523
O	     11.97189     11.65260     -5.97544         0.457214      0.097037      1.409440
O	      6.16800      3.92796     -3.82354        -0.765958     -1.720004     -0.233955
O	      6.15788      7.80683     -7.78687        -0.558965     -1.151370     -0.420653
O	     13.99160      9.70435     -2.11518        -0.170843      0.381311      1.503196
O	     14.02545     13.56590     -5.98808         0.882465      0.062514      1.146210
O	      6.08133      5.78543     -2.07071        -0.218735     -0.657314      1.126619
O	      6.18354      9.63209     -5.93093        -0.440769     -1.150260      0.904164
O	     14.00045      7.80335     -4.02999         0.147651     -1.139913      0.532719
O	     14.02304     11.66533     -7.90129         1.026782     -1.177861      0.800300
O	      4.23669      5.63379     -3.83926        -1.174671     -0.049539     -1.078136
O	      4.14790      9.63059     -7.68936        -1.056233      1.202040     -1.558061
O	     12.01659      7.58943     -5.77052        -0.486788      0.856458     -1.103917
O	     12.05632     11.46807     -9.62463        -0.334213      1.105986     -1.369958
O	      4.21951      7.62721     -1.81816        -0.707290      1.078637     -0.881069
O	      4.19911     11.46722     -5.86279        -1.310749      1.669141     -0.605828
O	     11.96730      9.49375     -3.86784        -0.625054      1.311742     -0.335052
O	     11.99663     13.39020     -7.70809        -0.433133      1.741927     -0.554960
O	      6.04060      5.70280     -5.66005         0.055400     -0.139212     -1.700895
O	     14.05115      3.76016     -3.76818         0.226489     -1.774163      1.037366
O	     14.02711     11.43386     -3.83965         0.319324      1.793313      0.107951
O	      6.02942      7.49568     -3.90247         0.002100      1.683193     -0.592540
O	     14.04269      5.66510     -1.84455         0.169273     -1.089467      1.559073
O	     14.03214      9.53070     -5.75577         0.380203      0.954236     -1.453453
O	     16.04533      5.85656     -3.98427         1.974067      0.172315     -0.937040
O	      0.02430      5.85990     -3.98973        -0.558031     -1.364665      0.924677
O	      8.01049      7.85433     -6.00294        -0.023940     -1.488900     -0.009472
O	     16.01101      7.75634     -2.06396         1.811976      0.442219     -0.280471
O	      0.01351      7.77387     -2.07538        -0.411642     -0.100211      1.545172
O	      7.93737      5.84285     -0.00878         0.229812     -1.314053      1.141471
O	      8.03169      9.62597     -3.94386        -0.039878     -0.964733      1.331156
O	      1.98804      3.92946     -0.04685        -0.084344     -1.418331      1.641243
O	      2.03936      7.78184     -4.00069         0.539502     -0.952533      1.361686
O	      9.92446      5.75463     -2.07051         1.090006     -1.029159      1.615993
O	      9.81367      9.67842     -6.01404         0.961802     -0.641179      1.322241
O	      1.97825      5.74873      1.79684        -0.083391     -0.673952      1.486879
O	      2.05965      5.89189     -5.92760         0.376504     -1.288222      0.305543
O	      9.79316      3.93968     -3.87320         1.307497     -1.821746      0.193474
O	      9.81398      7.88011     -7.82281         1.038039     -1.609129     -0.429040
O	      0.00518      3.72623     -1.83174        -0.551033      0.204085     -1.340300
O	      0.01650      7.59251     -5.71618        -1.176971      0.955421     -1.116285
O	      7.89567      5.62545     -3.82400         0.541025     -0.117495     -1.110262
O	      7.08764      2.98594     -0.98935        -0.372764     -1.002619      0.478082
O	     16.04473      9.49540     -3.79369         1.323682      2.412125     -2.310830
O	      0.01692      9.49726     -3.79751        -1.133421      1.449399      0.005371
O	      7.92465      7.67251     -1.98162         0.356632      1.181565     -0.742143
O	      7.92608     11.50837     -5.80522         0.506660      1.124916     -1.079855
O	      2.10812      7.55494     -0.00178        -0.696026      1.001162     -0.181989
O	      2.06401     11.42576     -3.84336        -0.374580      1.481153     -0.385361
O	     10.01618      5.75937     -5.67629        -0.439303     -0.053558     -1.519989
O	      9.98329      9.67854     -9.59104        -0.612176      0.218402     -1.792238
O	      2.08886      5.71811     -1.83385        -0.833014      1.080936     -0.843323
O	      2.05011      9.53191     -5.75422        -0.481768      1.089450     -1.634481
O	     10.00923      7.55987     -3.87712        -0.696746      1.330467     -0.838748
O	      9.97658     11.46392     -7.80683        -0.636895      1.652542     -0.957439
