# total energy = -593.99484993 eV
 
CRYSTAL
PRIMVEC
0.001516 3.927649 3.955184 
16.550869 3.977738 -3.999382 
-0.014379 7.967321 -8.022672 
PRIMCOORD
125 1
Li	      8.23711      5.79911      1.81520        -0.057903     -0.005223      0.726909
Li	      8.09280      9.70325     -2.07961         0.016339      0.358832      0.184025
Li	     16.21882      7.76104     -0.06410         0.196748      0.099262      0.097553
Li	      0.00279      7.76381     -0.07806        -0.282460      0.125454      0.107696
Li	      8.24169      4.04202      0.05909         0.010910     -0.360074      0.241217
Li	      8.08284      7.85078     -3.96482         0.040701     -0.154835     -0.273029
Li	     16.21139      5.84025     -1.99734         0.213582     -0.108720     -0.019619
Li	      0.02091      5.84919     -1.99989        -0.294375     -0.088707     -0.081618
Li	      1.98996      1.92138      0.00572        -0.053346     -0.466700      0.288813
Li	      1.99800      5.80872     -3.91075         0.111049     -0.040534     -0.102898
Li	     10.31008      3.89724     -1.96705         0.025044     -0.396359      0.230665
Li	     10.05722      7.78308     -5.89758        -0.003291     -0.061548     -0.073765
Li	      1.95055      3.84419      1.93687         0.032386     -0.471244      0.579456
Li	      2.02349      7.73854     -1.97012        -0.015290      0.230907     -0.094622
Li	     10.11632      5.83240     -0.04501         0.252055     -0.123046      0.206932
Li	     10.03594      9.67189     -3.92879         0.250860      0.093375      0.021419
Li	      3.86036      5.76098      1.92796         0.329449     -0.117953      0.371618
Li	      4.12226      5.82486     -5.85317        -0.119979      0.010344     -0.225860
Li	     12.25644      7.76196     -0.07185         0.089491     -0.025449      0.198512
Li	     12.19039      7.79025     -7.83406        -0.065510     -0.153200     -0.207308
Li	      3.85565      3.84273      0.03676         0.470578     -0.348142      0.175262
Li	      4.14434      7.78480     -3.99715        -0.147821     -0.022175      0.102064
Li	     12.15954      5.84190     -1.99525         0.225220     -0.151181      0.155376
Li	     12.18884      9.71016     -5.89954        -0.066432      0.128891      0.059781
Li	      5.96676      3.94232     -2.00777         0.026936     -0.272114      0.226452
Li	      6.09783      7.75210     -5.85628         0.035280     -0.159510     -0.096643
Li	     14.20589      5.81024     -3.89275         0.245130     -0.048630     -0.061178
Li	     14.23633      9.70416     -7.82302         0.268707     -0.132036     -0.053296
Li	      6.10293      5.96677     -0.20604         0.008977     -0.205795      0.355427
Li	      6.13513      9.65279     -3.93416        -0.176375     -0.012057      0.169226
Li	     14.20495      7.73267     -1.96680         0.157261      0.101255      0.042684
Li	     14.22527     11.63092     -5.89591         0.213259      0.102924      0.084071
Ni	      0.01159      5.76756      1.93431        -2.127650     -0.548658      2.917470
Ni	      0.03814      5.82973     -5.86874        -0.462673     -1.292391     -1.155552
Ni	      8.06825      7.72965     -0.09405        -0.021844      1.458834      1.573112
Ni	      8.07643     11.59058     -3.96444         0.024645      1.650224      1.380481
Ni	      0.01224      3.84963     -0.00033        -2.267127     -2.509833      1.416121
Ni	      0.04026      7.75397     -3.92872        -0.553185      0.196660      0.360521
Ni	      8.10722      5.85253     -1.94312        -0.069743     -1.490243      0.016798
Ni	      8.08419      9.71203     -5.85246         0.052601      0.022863     -1.153633
Ni	      2.06499      3.86661     -1.96152        -0.251697     -0.828994     -1.068821
Ni	      2.08989      7.78714     -5.89753        -0.583432     -0.096461     -1.309095
Ni	     10.09531      5.82737     -3.92436        -0.218730     -0.466452     -0.179869
Ni	     10.13588      9.76977     -7.88469        -0.872187     -0.133616     -0.350803
Ni	      2.06708      5.79904     -0.01907         0.080484      0.382314      0.053500
Ni	      2.10074      9.70207     -3.96123        -0.425971      0.816445      0.775101
Ni	     10.07310      7.76243     -2.00572         0.108722      0.863861      0.810961
Ni	     10.09827     11.69687     -5.94967        -0.117048      1.023663      0.699686
Ni	      4.12274      7.69404     -0.00282         0.202637      1.330091      1.168415
Ni	      4.09860      7.79738     -7.84609        -0.041899     -0.798890     -1.211495
Ni	     12.09155      5.85358     -5.88623         0.490296     -1.278673     -1.209605
Ni	     12.12061      9.75718     -9.81288         0.049031     -1.115834     -1.415846
Ni	      4.08828      5.78426     -1.94006        -0.025545     -0.183676     -0.304456
Ni	      4.10392      9.72254     -5.92300        -0.155611      0.675274     -0.079829
Ni	     12.08962      7.76645     -3.95249         0.487647      0.403862      0.291016
Ni	     12.11926     11.68388     -7.87942         0.005854      0.526910      0.148354
Ni	      6.10975      5.80707     -3.93007         0.181229     -0.469855     -0.292109
Ni	      6.11233      9.79445     -7.89342         0.943495      1.479492     -1.807834
Ni	     14.15850      7.79870     -5.91774         0.843685     -1.105354     -1.201732
Ni	     14.17875     11.70176     -9.83199         0.627839      1.112239     -2.390863
Ni	      6.11908      7.77694     -2.03438        -0.085969      1.199081      0.492808
Ni	      6.09425     11.57473     -5.83693        -0.047402      1.668295     -0.329843
Ni	     14.15124      9.72297     -3.98167         0.372082      0.262574      0.420141
Ni	     14.17144     13.62601     -7.89475         0.389833      2.491757     -1.493549
O	      4.10347      3.84353     -2.04004         0.206018     -1.203333      0.132504
O	      4.07225      7.91233     -5.95381         0.423865     -1.108372      0.662375
O	     12.11839      5.93871     -3.99039         0.361511     -1.079310      0.910768
O	     12.10537      9.83321     -7.95096         0.614804     -0.942363      0.813254
O	      4.20447      5.84813      0.01034         0.163521     -1.085736      0.962792
O	      4.11895      9.74357     -4.10217         0.534546     -0.062175      1.149921
O	     12.08654      7.88106     -2.06378         0.263499     -0.009141      1.126103
O	     12.09499     11.77241     -6.03688         0.366998      0.053786      1.074577
O	      6.23142      3.96835     -3.86285        -0.605592     -1.335656     -0.168671
O	      6.22119      7.88710     -7.86694        -0.426462     -0.913848     -0.285841
O	     14.13548      9.80414     -2.13693        -0.058481      0.302772      1.158950
O	     14.16967     13.70540     -6.04966         0.741702      0.072759      0.877656
O	      6.14386      5.84491     -2.09200        -0.180869     -0.517084      0.868901
O	      6.24712      9.73114     -5.99191        -0.327556     -0.908571      0.719058
O	     14.14442      7.88360     -4.07144         0.149431     -0.893662      0.403214
O	     14.16724     11.78528     -7.98255         0.828184     -0.898354      0.546381
O	      4.28026      5.69173     -3.87875        -0.901172     -0.010206     -0.866810
O	      4.19054      9.72962     -7.76842        -0.840346      0.960957     -1.216015
O	     12.14015      7.66747     -5.82986        -0.390458      0.661312     -0.857466
O	     12.18027     11.58599     -9.72359        -0.244396      0.881109     -1.055376
O	      4.26290      7.70564     -1.83686        -0.537792      0.853044     -0.694650
O	      4.24229     11.58513     -5.92308        -1.050401      1.300960     -0.509532
O	     12.09036      9.59137     -3.90762        -0.524682      1.002025     -0.270601
O	     12.11999     13.52788     -7.78734        -0.316127      1.350450     -0.442674
O	      6.10272      5.76144     -5.71825         0.041738     -0.077042     -1.303806
O	     14.19563      3.79883     -3.80693         0.192805     -1.524244      0.934224
O	     14.17134     11.55143     -3.87914         0.275580      1.409131      0.051906
O	      6.09141      7.57276     -3.94261         0.002994      1.296235     -0.468178
O	     14.18708      5.72335     -1.86351         0.135248     -0.958904      1.320239
O	     14.17644      9.62870     -5.81496         0.310352      0.760612     -1.145979
O	     16.21032      5.91678     -4.02524         1.663136      0.163994     -0.849607
O	      0.02455      5.92016     -4.03076        -0.460166     -1.050616      0.730275
O	      8.09285      7.93508     -6.06466        -0.012983     -1.140652      0.029314
O	     16.17565      7.83610     -2.08519         1.478491      0.376491     -0.230335
O	      0.01364      7.85380     -2.09672        -0.344495     -0.110305      1.198917
O	      8.01899      5.90294     -0.00887         0.183071     -1.022835      0.913356
O	      8.11428      9.72495     -3.98442        -0.027189     -0.773992      1.057352
O	      2.00847      3.96986     -0.04733        -0.095201     -1.085079      1.294147
O	      2.06033      7.86186     -4.04183         0.406594     -0.734601      1.071405
O	     10.02650      5.81380     -2.09180         0.883437     -0.803558      1.262970
O	      9.91457      9.77793     -6.07588         0.765281     -0.498466      1.025212
O	      1.99860      5.80785      1.81531        -0.100462     -0.574677      1.137114
O	      2.08083      5.95247     -5.98855         0.277635     -0.991486      0.259150
O	      9.89387      3.98020     -3.91303         1.042108     -1.424852      0.161561
O	      9.91488      7.96114     -7.90325         0.833133     -1.246571     -0.315964
O	      0.00523      3.76455     -1.85057        -0.461624      0.144008     -1.049392
O	      0.01666      7.67058     -5.77496        -1.035827      0.731494     -0.850214
O	      7.97686      5.68330     -3.86332         0.402041     -0.071035     -0.888208
O	      7.16053      3.01665     -0.99953        -0.296754     -0.787858      0.379174
O	     16.20971      9.59303     -3.83270         1.297638      1.927570     -1.825433
O	      0.01709      9.59491     -3.83656        -0.977317      1.117078     -0.012219
O	      8.00613      7.75141     -2.00200         0.279241      0.931053     -0.584543
O	      8.00758     11.62670     -5.86492         0.418259      0.874406     -0.854733
O	      2.12979      7.63263     -0.00181        -0.555462      0.742511     -0.174430
O	      2.08524     11.54324     -3.88288        -0.308330      1.166801     -0.331332
O	     10.11918      5.81859     -5.73465        -0.376908     -0.024165     -1.174013
O	     10.08594      9.77806     -9.68967        -0.471600      0.200141     -1.400218
O	      2.11034      5.77690     -1.85271        -0.682352      0.841574     -0.621160
O	      2.07119      9.62992     -5.81338        -0.384391      0.846625     -1.275065
O	     10.11215      7.63761     -3.91698        -0.541517      1.038578     -0.651373
O	     10.07917     11.58179     -7.88710        -0.475489      1.289754     -0.763802
