# total energy = -597.67093714 eV
 
CRYSTAL
PRIMVEC
0.001524 3.947688 3.975364 
16.635312 3.998033 -4.019787 
-0.014452 8.007971 -8.063604 
PRIMCOORD
125 1
Li	      8.32138      5.85843      1.83377        -0.050528     -0.008691      0.527788
Li	      8.17560      9.80251     -2.10088         0.009115      0.262540      0.121935
Li	     16.38474      7.84044     -0.06476         0.161241      0.071344      0.072177
Li	      0.00282      7.84324     -0.07887        -0.222819      0.095617      0.077292
Li	      8.32602      4.08337      0.05970        -0.006389     -0.254627      0.182827
Li	      8.16554      7.93110     -4.00538         0.024924     -0.103811     -0.197452
Li	     16.37723      5.90000     -2.01777         0.174079     -0.068863     -0.019364
Li	      0.02112      5.90903     -2.02034        -0.229821     -0.064003     -0.070343
Li	      2.01033      1.94104      0.00578        -0.060905     -0.357287      0.225311
Li	      2.01843      5.86814     -3.95076         0.082756     -0.021491     -0.081794
Li	     10.41554      3.93711     -1.98717         0.017674     -0.288751      0.173651
Li	     10.16012      7.86271     -5.95791        -0.004519     -0.045741     -0.055338
Li	      1.97050      3.88352      1.95669         0.004416     -0.356904      0.435629
Li	      2.04420      7.81771     -1.99028        -0.009484      0.170669     -0.076768
Li	     10.21980      5.89206     -0.04547         0.182768     -0.095417      0.155503
Li	     10.13861      9.77083     -3.96898         0.178814      0.063471      0.015561
Li	      3.89985      5.81992      1.94769         0.236733     -0.103389      0.281710
Li	      4.16444      5.88446     -5.91305        -0.081297      0.015071     -0.170778
Li	     12.38184      7.84137     -0.07258         0.068991     -0.016173      0.146459
Li	     12.31509      7.86994     -7.91420        -0.041674     -0.113035     -0.148074
Li	      3.89510      3.88205      0.03714         0.343361     -0.260831      0.134787
Li	      4.18674      7.86444     -4.03804        -0.108897     -0.013242      0.068866
Li	     12.28394      5.90167     -2.01566         0.162805     -0.108854      0.111382
Li	     12.31354      9.80950     -5.95989        -0.043074      0.096174      0.046598
Li	      6.02780      3.98266     -2.02831         0.015453     -0.203761      0.174007
Li	      6.16020      7.83140     -5.91618         0.017678     -0.121695     -0.068411
Li	     14.35122      5.86968     -3.93257         0.185669     -0.032416     -0.050479
Li	     14.38196      9.80343     -7.90305         0.219178     -0.107852     -0.024795
Li	      6.16536      6.02781     -0.20815         0.000804     -0.163157      0.263578
Li	      6.19790      9.75154     -3.97441        -0.129632     -0.014531      0.126312
Li	     14.35028      7.81178     -1.98692         0.123294      0.079611      0.024719
Li	     14.37078     11.74990     -5.95622         0.179747      0.066439      0.071285
Ni	      0.01171      5.82655      1.95411        -1.711580     -0.423654      2.240449
Ni	      0.03854      5.88937     -5.92877        -0.359166     -0.952036     -0.816836
Ni	      8.15079      7.80873     -0.09501        -0.033250      1.040937      1.202964
Ni	      8.15906     11.70917     -4.00501        -0.011600      1.223134      1.006438
Ni	      0.01237      3.88901     -0.00033        -1.770117     -1.877235      1.046166
Ni	      0.04069      7.83330     -3.96892        -0.413428      0.112548      0.279046
Ni	      8.19016      5.91241     -1.96300        -0.062865     -1.117858      0.030965
Ni	      8.16691      9.81139     -5.91233         0.005963      0.008586     -0.850591
Ni	      2.08612      3.90616     -1.98159        -0.188603     -0.581410     -0.764879
Ni	      2.11126      7.86681     -5.95787        -0.422438     -0.067002     -0.945464
Ni	     10.19859      5.88697     -3.96451        -0.171172     -0.349633     -0.123295
Ni	     10.23957      9.86973     -7.96535        -0.657869     -0.093672     -0.259876
Ni	      2.08822      5.85836     -0.01925         0.041337      0.287138      0.033553
Ni	      2.12223      9.80133     -4.00176        -0.299166      0.602136      0.538883
Ni	     10.17616      7.84184     -2.02624         0.066905      0.613283      0.579841
Ni	     10.20157     11.81653     -6.01054        -0.100303      0.735339      0.499811
Ni	      4.16493      7.77276     -0.00285         0.157432      0.959752      0.842152
Ni	      4.14053      7.87715     -7.92635        -0.016782     -0.556771     -0.874708
Ni	     12.21525      5.91346     -5.94644         0.369642     -0.913127     -0.872025
Ni	     12.24462      9.85699     -9.91326         0.034681     -0.807518     -1.008961
Ni	      4.13010      5.84343     -1.95991        -0.013212     -0.141787     -0.220999
Ni	      4.14591      9.82200     -5.98359        -0.091217      0.497483     -0.067280
Ni	     12.21331      7.84591     -3.99293         0.372496      0.304554      0.210199
Ni	     12.24325     11.80340     -7.96002         0.005456      0.380099      0.110070
Ni	      6.17225      5.86647     -3.97028         0.141095     -0.332957     -0.210817
Ni	      6.17486      9.89465     -7.97417         0.688596      1.104793     -1.347958
Ni	     14.30334      7.87848     -5.97827         0.654778     -0.790535     -0.880001
Ni	     14.32380     11.82148     -9.93258         0.489376      0.887599     -1.833376
Ni	      6.18168      7.85649     -2.05519        -0.063523      0.865678      0.331531
Ni	      6.15659     11.69314     -5.89664        -0.033111      1.262710     -0.302089
Ni	     14.29602      9.82243     -4.02240         0.270461      0.202034      0.296583
Ni	     14.31641     13.76541     -7.97551         0.318372      1.955914     -1.145684
O	      4.14545      3.88285     -2.06091         0.165790     -0.890806      0.137170
O	      4.11392      7.99328     -6.01473         0.337409     -0.822463      0.510940
O	     12.24237      5.99946     -4.03121         0.276395     -0.787309      0.670863
O	     12.22922      9.93380     -8.03230         0.469349     -0.688955      0.603037
O	      4.24749      5.90797      0.01044         0.116207     -0.815431      0.721594
O	      4.16107      9.84325     -4.14414         0.405916     -0.086892      0.844282
O	     12.21019      7.96169     -2.08490         0.203957     -0.037842      0.832157
O	     12.21871     11.89285     -6.09864         0.283337      0.013317      0.779467
O	      6.29517      4.00894     -3.90237        -0.459365     -0.980941     -0.107936
O	      6.28485      7.96780     -7.94743        -0.312369     -0.691042     -0.164933
O	     14.28008      9.90444     -2.15879         0.010637      0.212351      0.840771
O	     14.31464     13.84561     -6.11155         0.597360      0.056987      0.640794
O	      6.20671      5.90471     -2.11339        -0.142990     -0.394067      0.638111
O	      6.31103      9.83069     -6.05321        -0.238668     -0.697711      0.550510
O	     14.28911      7.96424     -4.11309         0.139104     -0.662132      0.291043
O	     14.31216     11.90584     -8.06421         0.642841     -0.650048      0.367605
O	      4.32404      5.74996     -3.91843        -0.669004      0.028000     -0.652618
O	      4.23341      9.82915     -7.84790        -0.648223      0.736628     -0.899161
O	     12.26435      7.74591     -5.88951        -0.310102      0.494791     -0.628680
O	     12.30488     11.70451     -9.82306        -0.186980      0.677714     -0.773833
O	      4.30652      7.78447     -1.85565        -0.403981      0.638940     -0.532147
O	      4.28568     11.70365     -5.98367        -0.803635      0.961405     -0.417763
O	     12.21405      9.68949     -3.94759        -0.413756      0.723172     -0.215948
O	     12.24399     13.66627     -7.86701        -0.226924      0.989808     -0.346010
O	      6.16516      5.82038     -5.77675         0.026898     -0.017393     -0.954323
O	     14.34084      3.83768     -3.84587         0.155256     -1.224146      0.751741
O	     14.31632     11.66961     -3.91882         0.220891      1.044383      0.004595
O	      6.15373      7.65023     -3.98294         0.007166      0.955659     -0.369349
O	     14.33221      5.78189     -1.88257         0.106423     -0.769865      1.029754
O	     14.32146      9.72720     -5.87445         0.235270      0.580720     -0.859794
O	     16.37615      5.97731     -4.06642         1.294402      0.128141     -0.694099
O	      0.02481      5.98073     -4.07200        -0.362346     -0.764424      0.549696
O	      8.17565      8.01627     -6.12671        -0.005012     -0.838594      0.061270
O	     16.34114      7.91627     -2.10652         1.124995      0.263474     -0.152701
O	      0.01379      7.93415     -2.11816        -0.268531     -0.114775      0.879404
O	      8.10102      5.96332     -0.00896         0.142940     -0.770349      0.701925
O	      8.19729      9.82444     -4.02519        -0.015608     -0.599975      0.800056
O	      2.02902      4.01047     -0.04781        -0.087029     -0.785462      0.979089
O	      2.08141      7.94229     -4.08318         0.289986     -0.543750      0.787408
O	     10.12908      5.87328     -2.11319         0.684087     -0.595420      0.938405
O	     10.01600      9.87797     -6.13803         0.587859     -0.369023      0.759105
O	      2.01903      5.86725      1.83389        -0.083864     -0.477026      0.820324
O	      2.10210      6.01336     -6.04981         0.198798     -0.719053      0.209262
O	      9.99509      4.02092     -3.95307         0.807534     -1.051561      0.134438
O	     10.01631      8.04258     -7.98410         0.645111     -0.913041     -0.214376
O	      0.00529      3.80305     -1.86950        -0.378756      0.106680     -0.779151
O	      0.01683      7.74905     -5.83404        -0.840415      0.536677     -0.613362
O	      8.05846      5.74143     -3.90284         0.288738     -0.013355     -0.673709
O	      7.23377      3.04751     -1.00976        -0.199614     -0.555030      0.260084
O	     16.37556      9.69117     -3.87191         1.135408      1.421599     -1.343799
O	      0.01727      9.69307     -3.87581        -0.785826      0.809895     -0.029531
O	      8.08803      7.83070     -2.02247         0.213081      0.700868     -0.444922
O	      8.08950     11.74565     -5.92492         0.325054      0.647735     -0.650280
O	      2.15158      7.71071     -0.00182        -0.419432      0.522754     -0.169987
O	      2.10657     11.66134     -3.92260        -0.249467      0.863162     -0.266658
O	     10.22270      5.87812     -5.79332        -0.306613      0.006814     -0.865196
O	     10.18912      9.87810     -9.78879        -0.341211      0.176247     -1.038197
O	      2.13192      5.83600     -1.87166        -0.533030      0.634445     -0.433844
O	      2.09237      9.72844     -5.87286        -0.297119      0.623600     -0.938192
O	     10.21559      7.71574     -3.95705        -0.408143      0.776127     -0.484128
O	     10.18229     11.70028     -7.96779        -0.337831      0.960859     -0.577861
