# total energy = -601.81136057 eV
 
CRYSTAL
PRIMVEC
0.001563 4.047883 4.076261 
17.057528 4.099506 -4.121812 
-0.014819 8.211219 -8.268264 
PRIMCOORD
125 1
Li	      8.74915      6.15959      1.92803         0.026411      0.013353     -0.311415
Li	      8.59431      6.25853     -6.28514        -0.028314     -0.116734     -0.117036
Li	      0.16793      0.09610     -0.02254        -0.178703     -0.002770     -0.066579
Li	      0.00141      4.19854     -4.15918         0.230245     -0.013356     -0.113853
Li	      8.75402      4.29328      0.06276         0.009745      0.206950     -0.104672
Li	      8.58529      8.33880     -4.21128        -0.013626      0.070699      0.098808
Li	      0.16159      2.10378      2.00032        -0.174422      0.050199     -0.012072
Li	      0.02221      6.21279     -2.12420         0.199304      0.100888     -0.007364
Li	      2.11367      2.04081      0.00608         0.200003      0.209102     -0.121949
Li	      2.12219      6.16979     -4.15385        -0.045254      0.031646      0.015109
Li	     10.95096      4.13950     -2.08932         0.097914      0.231877     -0.179276
Li	     10.68240      8.26689     -6.26418         0.020034      0.022122      0.028612
Li	      2.07179      4.08316      2.05727         0.153087      0.160223     -0.214962
Li	      2.14927      8.21958     -2.09258        -0.021906     -0.043793     -0.003410
Li	     10.74516      6.19495     -0.04780        -0.022122      0.095241     -0.117752
Li	     10.65979     10.27311     -4.17301        -0.048043     -0.030643     -0.016447
Li	      4.09875      2.07120     -2.02845        -0.104921      0.013664     -0.100952
Li	      4.37851      6.18695     -6.21701         0.021041      0.015134      0.042978
Li	     13.01676      4.19658     -4.15257        -0.045512      0.012132     -0.095472
Li	     12.94815      8.27451     -8.32104         0.039537      0.078527      0.036814
Li	      4.09532      4.08161      0.03905        -0.154640      0.124720     -0.100757
Li	      4.40196      8.26872     -4.24561         0.036484      0.001309     -0.051397
Li	     12.91540      6.20504     -2.11928        -0.047743      0.053559     -0.032527
Li	     12.94652     10.31376     -6.26627         0.044569     -0.018093     -0.047203
Li	      6.33767      4.18739     -2.13259        -0.014055      0.096397     -0.072418
Li	      6.47687      8.23399     -6.22031        -0.007040      0.051899      0.020593
Li	     15.08895      6.17141     -4.13473        -0.172759     -0.001901      0.075797
Li	     15.12127     10.30738     -8.30930        -0.342341     -0.000850      0.056497
Li	      6.48231      6.33768     -0.21885         0.026466      0.051908     -0.120038
Li	      6.51650     10.25283     -4.17871         0.052478      0.004637     -0.056756
Li	     15.08796      8.21335     -2.08907        -0.127396     -0.096963      0.029282
Li	     15.10952     12.35391     -6.26240        -0.324839     -0.100024      0.026159
Ni	      0.01075      2.07820     -2.02171         1.192682      0.044718     -1.182125
Ni	      0.04052      6.19212     -6.23354         0.451084      0.415410      0.538595
Ni	      8.56822      4.16226     -4.17615         0.002598     -0.681743     -0.387432
Ni	      8.57692      8.26320     -8.28715        -0.098971     -0.619231     -0.595592
Ni	      0.01300      4.08892     -0.00035         1.195192      0.763300     -0.373182
Ni	      0.04278      8.23597     -4.17294         0.429772     -0.150242     -0.035558
Ni	      8.61118      6.21634     -2.06392        -0.023310      0.327278      0.048430
Ni	      8.58673     10.31574     -6.21625        -0.092243      0.037077      0.416436
Ni	      2.19336      4.10696     -2.08345         0.096597      0.315245      0.343949
Ni	      2.21979      8.27121     -6.26414         0.254501      0.025780      0.498665
Ni	     10.72284      6.18960     -4.16830         0.021536      0.071130      0.133357
Ni	     10.76593     10.37708     -8.37481         0.391775      0.019814      0.200417
Ni	      2.19557      6.15952     -0.02025         0.227875     -0.134234     -0.040337
Ni	      2.23133     10.30517     -4.20747         0.192126     -0.340585     -0.234751
Ni	     10.69927      8.24495     -2.13040        -0.043702     -0.335291     -0.232742
Ni	     10.72598     12.42396     -6.31951         0.061537     -0.389666     -0.223706
Ni	      4.37747      4.12444     -4.07926         0.015456     -0.414563     -0.504443
Ni	      4.35337      8.28207     -8.33381         0.096265      0.323291      0.406999
Ni	     12.84320      6.21745     -6.25213        -0.105678      0.491059      0.408745
Ni	     12.87404     10.36369    -10.42286         0.058273      0.382063      0.559186
Ni	      4.34241      6.14382     -2.06066         0.074235      0.108810      0.061668
Ni	      4.35902     10.32691     -6.29119         0.134955     -0.173203     -0.034631
Ni	     12.84114      8.24923     -4.19819        -0.084241     -0.121850     -0.090404
Ni	     12.87261     12.41016     -8.36921         0.060199     -0.204469      0.003226
Ni	      6.48954      6.16804     -4.17437         0.000554      0.143486      0.100360
Ni	      6.49228     10.40329     -8.38409        -0.929600     -0.923333      1.006134
Ni	     15.03861      8.28348     -6.28559        -0.667348      0.538299      0.356254
Ni	     15.06013     12.42917    -10.44317        -0.539472     -0.612710      1.179465
Ni	      6.49945      8.26036     -2.16084         0.073752     -0.418107     -0.223660
Ni	      6.47308     12.29424     -6.19977         0.069988     -0.331939     -0.129417
Ni	     15.03092     10.32736     -4.22918        -0.233665     -0.027196     -0.247194
Ni	     15.05235     14.47303     -8.38549        -0.472327     -1.556793      0.722948
O	      4.35854      4.08245     -2.16685        -0.005984      0.405019      0.206376
O	      4.32539      8.40417     -6.32391        -0.085927      0.051548     -0.058944
O	     12.87169      6.30787     -4.23844        -0.055658     -0.037553     -0.219555
O	     12.85786     10.44446     -8.44520        -0.144059     -0.110204     -0.113699
O	      4.46583      6.21167      0.01098        -0.051881      0.136672     -0.323179
O	      4.37499     10.34924     -4.35717        -0.102460     -0.138032     -0.097384
O	     12.83786      8.37096     -2.19207        -0.020180     -0.235021     -0.177965
O	     12.84684     12.50421     -6.41215        -0.097640     -0.238972      0.117199
O	      6.61877      4.21503     -4.10297        -0.006058      0.231781      0.143572
O	      6.60791      8.37738     -8.35596        -0.060254      0.183434      0.338984
O	     15.01259      6.36569     -6.34602        -0.251162     -0.421655     -0.084577
O	     15.04892     10.50946    -10.50197        -0.518495     -0.228703     -0.113779
O	      6.52578      6.20825     -2.22204         0.033480     -0.015661      0.029733
O	      6.63545     10.33604     -6.36438        -0.121968      0.115644     -0.098473
O	     15.02365      8.37365     -4.32452        -0.265831      0.009656      0.095936
O	     15.04788     12.51787     -8.47876        -0.476887      0.137952      0.087525
O	      4.54632      6.04553     -4.11985        -0.206943      0.168013      0.300880
O	      4.45103     10.33442     -8.25132         0.153975     -0.227107      0.238656
O	     12.89481      8.14410     -6.19226         0.068553     -0.029042      0.057569
O	     12.93743     12.30620    -10.32803         0.083712     -0.131770     -0.058221
O	      4.52789      8.18464     -1.95104        -0.025016     -0.248465      0.008731
O	      4.50600     12.30528     -6.29126         0.174363     -0.257527      0.099187
O	     12.84191     10.18759     -4.15052         0.143053      0.043610      0.000795
O	     12.87339     14.36879     -8.27142         0.054101     -0.045603     -0.042883
O	      6.48208      6.11959     -6.07370        -0.009677      0.290760      0.078006
O	     15.07804      4.03496     -4.04357        -0.033534      1.454232     -0.901395
O	     15.05069      8.22160     -8.19653        -0.186691     -0.264929     -0.141349
O	      6.47007      8.04350     -4.18769        -0.001911      0.015909      0.042273
O	     15.06897      6.07912     -1.97935        -0.022553      0.870105     -1.085649
O	     15.05766     10.22724     -6.17642        -0.193551     -0.178467      0.147687
O	      0.16045      2.18507     -0.15364        -0.869965     -0.344889      0.762634
O	      0.02609      6.28817     -4.28133         0.343844      0.125663     -0.123244
O	      8.59592      8.42835     -6.44166         0.034301      0.111000      0.315330
O	      0.12364      4.22371      1.90700        -0.853991     -0.228628      0.248213
O	      0.01449      8.34201     -2.22705         0.288454     -0.109690     -0.205728
O	      8.51746      6.26987     -0.00942        -0.095630      0.120003     -0.270436
O	      8.61869     10.32948     -4.23211         0.028396      0.020553     -0.107883
O	      2.13333      4.21663     -0.05028         0.165719      0.170151     -0.415016
O	      2.18841      8.35057     -4.29307        -0.110396     -0.009490     -0.122871
O	     10.64977      6.17519     -2.22182        -0.254539      0.206587     -0.204667
O	     10.53088     10.38575     -6.45357        -0.008250      0.164438     -0.181632
O	      2.12283      6.16887      1.92816         0.168862      0.198498     -0.219629
O	      2.21018      6.32249     -6.36081        -0.052179      0.058933      0.184432
O	     10.50889      4.22761     -4.15627        -0.119422      0.377266      0.002815
O	     10.53121      8.45602     -8.39453        -0.072710      0.252547      0.155099
O	      0.00557      3.99856     -1.96561         0.497789      0.140127      0.166724
O	      0.01770      8.14740     -6.13394         0.780963     -0.045021      0.029707
O	      8.47271      6.03658     -4.10347         0.233875      0.317922      0.293160
O	      7.60563      3.20417     -1.06166         0.855233      0.946144     -0.761440
O	      0.15981      6.08985      0.05086        -1.074595     -0.305964      0.319852
O	      0.01815     10.19135     -4.07505         0.765851     -0.121622     -0.174443
O	      8.50381      8.23325     -2.12645         0.053279     -0.221044      0.000773
O	      8.50534     12.34943     -6.22949        -0.030304     -0.140249      0.140188
O	      2.26063      4.05920     -4.07817         0.130426     -0.028714      0.003667
O	      2.21330      8.21291     -8.20051         0.097272     -0.225157     -0.157647
O	     10.74820      6.18029     -6.09113         0.040595      0.128963      0.109514
O	     10.71290     10.38588    -10.29199        -0.048457     -0.087665      0.284133
O	      2.24152      6.13601     -1.96787         0.205801     -0.243210     -0.031138
O	      2.19994     10.22853     -6.17476         0.099921     -0.047599      0.228092
O	     10.74074      8.11238     -4.16047         0.004248     -0.094147      0.129240
O	     10.70571     12.30173     -8.37738        -0.065382     -0.233995      0.310137
