# total energy = -600.02427632 eV
 
CRYSTAL
PRIMVEC
0.001571 4.067922 4.096441 
17.141972 4.119800 -4.142217 
-0.014892 8.251869 -8.309196 
PRIMCOORD
125 1
Li	      8.83442      2.15281     -2.14927         0.046440      0.029371     -0.449334
Li	      8.67963      6.34079     -6.32724        -0.037845     -0.170315     -0.146255
Li	      0.25446      0.13758     -0.02299        -0.291003      0.009187     -0.098011
Li	      0.00142      4.26035     -4.18018         0.403010     -0.027696     -0.182412
Li	      8.84090      4.33589      0.06339         0.024239      0.287340     -0.169968
Li	      8.67051      8.42156     -4.25308        -0.028452      0.089473      0.141919
Li	      0.24805      2.14505      1.99967        -0.297916      0.073859     -0.029615
Li	      0.02244      6.27446     -2.14529         0.352579      0.158795     -0.000993
Li	      2.13466      2.06108      0.00613         0.354466      0.291489     -0.152216
Li	      2.14325      6.23103     -4.19507        -0.074031      0.047442      0.018423
Li	     11.05965      4.18059     -2.11006         0.108171      0.340296     -0.260440
Li	     10.78844      8.34895     -6.32636         0.020453      0.040489      0.033529
Li	      2.09235      4.12368      2.07769         0.312544      0.221761     -0.280124
Li	      2.17061      8.30116     -2.11335        -0.040339     -0.058162     -0.003474
Li	     10.85182      6.25644     -0.04828        -0.056235      0.147400     -0.187472
Li	     10.76560     10.37508     -4.21443        -0.060628     -0.035799     -0.022983
Li	      4.13945      2.11190     -2.02831        -0.139939      0.042840     -0.168679
Li	      4.42198      6.24836     -6.27872         0.026741      0.007879      0.075918
Li	     13.14596      4.25837     -4.17351        -0.081556      0.035905     -0.173915
Li	     13.07668      8.35664     -8.40363         0.074762      0.106462      0.053450
Li	      4.13597      4.12212      0.03944        -0.204607      0.187011     -0.153590
Li	      4.44565      8.35079     -4.28775         0.050969     -0.003993     -0.057665
Li	     13.04359      6.26663     -2.14032        -0.084186      0.098365     -0.067067
Li	     13.07502     10.41613     -6.32846         0.076006     -0.033100     -0.062005
Li	      6.40058      4.22895     -2.15376        -0.017308      0.153298     -0.122679
Li	      6.54117      8.31572     -6.28205         0.002324      0.082470      0.028760
Li	     15.23872      6.23267     -4.17577        -0.250979      0.051406      0.063479
Li	     15.27137     10.40969     -8.39178        -0.587543     -0.054461      0.132258
Li	      6.54663      6.40058     -0.22102         0.047159      0.097903     -0.189964
Li	      6.58119     10.35459     -4.22019         0.078668      0.014572     -0.084015
Li	     15.23772      8.29486     -2.10980        -0.186469     -0.107846      0.002137
Li	     15.25950     12.47653     -6.32456        -0.566994     -0.182355      0.075060
Ni	      0.01086      2.11896     -2.02149         1.833357     -0.022965     -1.595707
Ni	      0.04092      6.25357     -6.29541         0.865221      0.527314      0.768860
Ni	      8.65328      4.22371     -4.19733         0.010336     -0.929719     -0.652580
Ni	      8.66205      8.36535     -8.34912        -0.102627     -0.906271     -0.849465
Ni	      0.01312      4.12951     -0.00036         1.756053      0.940770     -0.423458
Ni	      0.04319      8.31771     -4.21436         0.852918     -0.205432      0.003130
Ni	      8.69665      6.27803     -2.08440        -0.019236      0.556458      0.045183
Ni	      8.67195     10.41813     -6.27795        -0.100002      0.047461      0.612219
Ni	      2.21514      4.14773     -2.10414         0.153854      0.482717      0.432070
Ni	      2.24182      8.35330     -6.32631         0.392771      0.021119      0.710098
Ni	     10.82929      6.25103     -4.20968         0.071299      0.111909      0.172588
Ni	     10.87279     10.48008     -8.45794         0.589832      0.016802      0.296803
Ni	      2.21736      6.22065     -0.02044         0.460340     -0.131839     -0.106108
Ni	      2.25348     10.40746     -4.24923         0.281216     -0.470072     -0.332717
Ni	     10.80546      8.32679     -2.15155        -0.042010     -0.469364     -0.322557
Ni	     10.83244     12.54728     -6.38224         0.103583     -0.568407     -0.309139
Ni	      4.42092      4.18551     -4.09947         0.001792     -0.571324     -0.739313
Ni	      4.39658      8.36428     -8.41653         0.086250      0.442561      0.588616
Ni	     12.97067      6.27915     -6.31418        -0.142453      0.687137      0.578411
Ni	     13.00184     10.46656    -10.52632         0.040821      0.514495      0.822619
Ni	      4.38552      6.20481     -2.08112         0.094737      0.169186      0.060763
Ni	      4.40230     10.42942     -6.35363         0.132813     -0.253335     -0.018600
Ni	     12.96859      8.33110     -4.23985        -0.111086     -0.166204     -0.110420
Ni	     13.00039     12.53334     -8.45229         0.046603     -0.305557      0.035525
Ni	      6.55397      6.22927     -4.21580        -0.020937      0.189655      0.154518
Ni	      6.55672     10.50655     -8.46731        -1.375884     -1.385432      1.504203
Ni	     15.18789      8.36570     -6.34798        -1.143138      0.785347      0.465500
Ni	     15.20961     12.55254    -10.54683        -0.878470     -0.976208      1.768539
Ni	      6.56396      8.34235     -2.18229         0.095544     -0.613836     -0.277452
Ni	      6.53732     12.41626     -6.26130         0.095841     -0.586701     -0.081838
Ni	     15.18011     10.42987     -4.27115        -0.391538     -0.005019     -0.332681
Ni	     15.20176     14.61668     -8.46873        -0.796550     -2.467552      1.094302
O	      4.40180      4.12298     -2.18836        -0.044835      0.597311      0.239449
O	      4.36833      8.48759     -6.38668        -0.185537      0.112043     -0.143992
O	     12.99945      6.37048     -4.28050        -0.123839     -0.058193     -0.338984
O	     12.98549     10.54813     -8.52903        -0.251973     -0.094351     -0.223258
O	      4.51016      6.27333      0.01108        -0.174220      0.234885     -0.462708
O	      4.41840     10.45196     -4.40041        -0.181630     -0.124205     -0.183254
O	     12.96529      8.45405     -2.21383        -0.066915     -0.289985     -0.244011
O	     12.97434     12.62831     -6.47579        -0.164962     -0.274804      0.119173
O	      6.68448      4.25687     -4.14370         0.039250      0.372359      0.176481
O	      6.67350      8.46053     -8.43890        -0.056780      0.307169      0.407239
O	     15.16161      6.44902     -6.38874        -0.460901     -0.545040      0.038786
O	     15.19829     10.63392    -10.58593        -0.927844     -0.252873     -0.180017
O	      6.59055      6.26987     -2.24410         0.052636      0.038423     -0.001106
O	      6.70131     10.43862     -6.42755        -0.141352      0.252225     -0.204613
O	     15.17278      8.45677     -4.36745        -0.464483     -0.137845      0.129493
O	     15.19725     12.64212     -8.56291        -0.837597      0.239235      0.094829
O	      4.59145      6.10554     -4.16075        -0.210089      0.171383      0.459493
O	      4.51011      2.18513     -0.02402         0.284191     -0.388134      0.378394
O	     13.02279      8.22493     -6.25372         0.181745     -0.084532      0.085134
O	     13.08073      4.17647     -2.12134         0.240091     -0.215813     -0.053013
O	      4.57284      8.26588     -1.97041         0.017031     -0.387760      0.080634
O	      4.56562      4.17555      1.95549         0.328800     -0.394391      0.206459
O	     12.96938     10.28870     -4.19172         0.205052      0.041248      0.053369
O	     13.01606      6.25955     -0.04432         0.139937     -0.118630     -0.024061
O	      6.54641      6.18032     -6.13399        -0.011324      0.340264      0.159863
O	     15.22771      4.07502     -4.08371        -0.043791      2.253091     -1.284278
O	     15.20010      8.32335     -8.25761        -0.307379     -0.250407     -0.122000
O	      6.53429      8.12333     -4.22925        -0.010795     -0.048255      0.100528
O	     15.21854      6.13945     -1.99899        -0.033174      1.229732     -1.615640
O	     15.20711     10.32875     -6.23773        -0.320206     -0.369632      0.031297
O	      0.24691      2.22716     -0.17568        -1.266934     -0.552227      1.041749
O	      0.02634      6.35058     -4.32382         0.569491      0.170551     -0.250594
O	      8.68124      8.51200     -6.50559         0.046904      0.222960      0.391499
O	      0.20971      4.28602      1.90543        -1.367998     -0.220818      0.332731
O	      0.01464      8.42481     -2.24916         0.458347     -0.129836     -0.251050
O	      8.60201      6.33210     -0.00952        -0.135923      0.243019     -0.416095
O	      8.70422     10.43199     -4.27411         0.039113      0.090104     -0.223300
O	      2.15451      4.25849     -0.05077         0.129787      0.259643     -0.590522
O	      2.21011      8.43345     -4.33569        -0.211416      0.011752     -0.160422
O	     10.75546      6.23649     -2.24388        -0.392459      0.327863     -0.350638
O	     10.63540     10.48884     -6.51762        -0.092630      0.250280     -0.298151
O	      2.14232      2.16218     -2.14915         0.181521      0.298954     -0.349449
O	      2.23210      6.38524     -6.42394        -0.111919      0.068160      0.264642
O	     10.61320      4.26958     -4.19753        -0.257872      0.568280     -0.034178
O	     10.63573      8.53994     -8.47784        -0.177402      0.406068      0.198794
O	      0.00563      4.03824     -1.98512         0.824803      0.196237      0.196923
O	      0.01788      8.22827     -6.19482         1.143026     -0.016788     -0.049336
O	      8.55681      6.09649     -4.14419         0.285354      0.360528      0.460743
O	      7.68112      3.23597     -1.07220         1.225093      1.324122     -1.057812
O	      0.24626      6.17069      0.03086        -1.523367     -0.233139      0.369452
O	      0.01834     10.29250     -4.11550         1.197477     -0.105008     -0.237809
O	      8.58821      8.31496     -2.14755         0.049956     -0.365923      0.048414
O	      8.58976     12.47201     -6.29132        -0.081945     -0.255612      0.272916
O	      2.28306      4.11963     -4.09838         0.225549     -0.092083      0.054423
O	      2.23527      8.31456     -8.26162         0.250308     -0.403678     -0.272235
O	     10.85488      6.24163     -6.15158         0.097512      0.147026      0.210977
O	     10.81923     10.48897    -10.39414        -0.014001     -0.156772      0.464262
O	      2.26377      6.19691     -1.98740         0.332727     -0.373558     -0.004970
O	      2.22178     10.33006     -6.23605         0.246236     -0.057199      0.349843
O	     10.84733      8.19290     -4.20176         0.089701     -0.159780      0.216313
O	     10.81197     12.42384     -8.46052        -0.041893     -0.376623      0.469225
