# total energy = -597.45590268 eV
 
CRYSTAL
PRIMVEC
0.001578 4.087961 4.116620 
17.226415 4.140095 -4.162622 
-0.014965 8.292518 -8.350128 
PRIMCOORD
125 1
Li	      8.92167      2.19420     -2.15022         0.061362      0.048951     -0.584425
Li	      8.76535      6.42356     -6.36946        -0.042346     -0.215530     -0.166315
Li	      0.34184      0.17948     -0.02345        -0.453402      0.050177     -0.167964
Li	      0.00145      4.32256     -4.20119         0.662857     -0.016808     -0.248480
Li	      8.92821      4.37871      0.06401         0.036616      0.365218     -0.236808
Li	      8.75614      8.50474     -4.29509        -0.041366      0.105999      0.173836
Li	      0.33537      2.18663      1.99891        -0.482288      0.113511     -0.064504
Li	      0.02265      6.33642     -2.16647         0.596870      0.218190     -0.013362
Li	      2.15573      2.08143      0.00620         0.552953      0.357729     -0.160905
Li	      2.16443      6.29258     -4.23651        -0.115023      0.058346      0.021156
Li	     11.16889      4.22188     -2.13089         0.105619      0.446147     -0.344192
Li	     10.89498      8.43140     -6.38884        -0.021259      0.058678      0.035400
Li	      2.11301      4.16441      2.09821         0.523687      0.258347     -0.313688
Li	      2.19205      8.38315     -2.13423        -0.065241     -0.072881     -0.001469
Li	     10.95899      6.31823     -0.04876        -0.101277      0.198158     -0.272817
Li	     10.87193     10.47755     -4.25606        -0.072669     -0.039804     -0.027929
Li	      4.18034      2.15290     -2.02806        -0.152441      0.071065     -0.240542
Li	      4.46564      6.31008     -6.34073         0.045624      0.005838      0.107415
Li	     13.27582      4.32056     -4.19445        -0.124491      0.074677     -0.268668
Li	     13.20582      8.43917     -8.48662         0.111399      0.137605      0.057740
Li	      4.17682      4.16283      0.03983        -0.213167      0.246046     -0.201658
Li	      4.48956      8.43326     -4.33010         0.085941     -0.009806     -0.075616
Li	     13.17242      6.32853     -2.16146        -0.127609      0.145843     -0.114229
Li	     13.20416     10.51901     -6.39096         0.110601     -0.032990     -0.079871
Li	      6.46379      4.27071     -2.17502        -0.023776      0.214698     -0.173918
Li	      6.60576      8.39784     -6.34410         0.003509      0.114511      0.034895
Li	     15.38923      6.29422     -4.21701        -0.315707      0.115394      0.042821
Li	     15.42219     10.51250     -8.47466        -0.890890     -0.129687      0.232737
Li	      6.61129      6.46380     -0.22321         0.074022      0.147840     -0.265296
Li	      6.64619     10.45686     -4.26187         0.103035      0.024614     -0.108857
Li	     15.38821      8.37679     -2.13064        -0.222034     -0.116693     -0.033397
Li	     15.41021     12.59976     -6.38703        -0.879462     -0.273583      0.129083
Ni	      0.01097      2.16002     -2.02118         2.546602     -0.137677     -1.792606
Ni	      0.04132      6.31534     -6.35759         1.376308      0.585778      1.041777
Ni	      8.73875      4.28556     -4.21850         0.003503     -1.143846     -0.908033
Ni	      8.74762      8.46810     -8.41130        -0.107816     -1.171730     -1.082582
Ni	      0.01326      4.17029     -0.00036         2.289648      0.959284     -0.376630
Ni	      0.04363      8.39987     -4.25599         1.379259     -0.320485      0.074493
Ni	      8.78254      6.34004     -2.10499        -0.021718      0.748701      0.034255
Ni	      8.75760     10.52103     -6.33996        -0.113577      0.049323      0.789767
Ni	      2.23702      4.18869     -2.12491         0.201942      0.628567      0.488279
Ni	      2.26397      8.43580     -6.38880         0.563300      0.022057      0.872789
Ni	     10.93624      6.31277     -4.25126         0.114543      0.143267      0.199294
Ni	     10.98017     10.58359     -8.54147         0.769900      0.003841      0.397649
Ni	      2.23925      6.28209     -0.02065         0.776460     -0.082976     -0.179004
Ni	      2.27573     10.51025     -4.29119         0.396360     -0.548035     -0.440274
Ni	     10.91218      8.40903     -2.17280        -0.051087     -0.585669     -0.396089
Ni	     10.93944     12.67120     -6.44527         0.136498     -0.720097     -0.369178
Ni	      4.46459      4.24699     -4.11968        -0.011583     -0.674240     -0.953547
Ni	      4.44000      8.44689     -8.49965         0.087967      0.548656      0.763842
Ni	     13.09877      6.34117     -6.37654        -0.192611      0.834651      0.725463
Ni	     13.13025     10.56993    -10.63027         0.004608      0.606569      1.099385
Ni	      4.42882      6.26608     -2.10167         0.125260      0.221817      0.036306
Ni	      4.44576     10.53241     -6.41638         0.135363     -0.344992     -0.008044
Ni	     13.09667      8.41339     -4.28173        -0.155745     -0.209551     -0.095521
Ni	     13.12877     12.65713     -8.53576         0.006719     -0.418446      0.080790
Ni	      6.61869      6.29079     -4.25744        -0.031073      0.239628      0.210437
Ni	      6.62147     10.61032     -8.55093        -1.877221     -1.867453      2.016791
Ni	     15.33789      8.44832     -6.41067        -1.649989      0.979062      0.565108
Ni	     15.35982     12.67651    -10.65098        -1.266194     -1.335445      2.274764
Ni	      6.62879      8.42474     -2.20384         0.109713     -0.797987     -0.322560
Ni	      6.60190     12.53889     -6.32315         0.119106     -0.822820     -0.027833
Ni	     15.33004     10.53288     -4.31333        -0.539862      0.015958     -0.397020
Ni	     15.35190     14.76104     -8.55237        -1.178035     -3.419389      1.432912
O	      4.44527      4.16370     -2.20998        -0.107665      0.751369      0.290632
O	      4.41146      8.57142     -6.44976        -0.265484      0.157611     -0.207613
O	     13.12785      6.43339     -4.32278        -0.174367     -0.084193     -0.443072
O	     13.11374     10.65231     -8.61326        -0.364944     -0.086747     -0.334888
O	      4.55471      6.33528      0.01120        -0.405316      0.291632     -0.568733
O	      4.46204     10.55520     -4.44388        -0.288158     -0.135021     -0.234578
O	     13.09333      8.53754     -2.23568        -0.079625     -0.359826     -0.314013
O	     13.10249     12.75304     -6.53975        -0.204324     -0.317057      0.106497
O	      6.75049      4.29890     -4.18462         0.088905      0.486661      0.214241
O	      6.73942      8.54409     -8.52225        -0.068486      0.417212      0.466583
O	     15.31136      6.53285     -6.43155        -0.762144     -0.659136      0.127631
O	     15.34840     10.75908    -10.67020        -1.423941     -0.294224     -0.198889
O	      6.65564      6.33179     -2.26626         0.082992      0.107955     -0.015616
O	      6.76749     10.54172     -6.49103        -0.157947      0.369920     -0.293537
O	     15.32263      8.54028     -4.41059        -0.767932     -0.273852      0.175925
O	     15.34735     12.76698     -8.64749        -1.239834      0.322095      0.146052
O	      4.63679      6.16583     -4.20184        -0.236987      0.178513      0.589433
O	      4.55458      2.24756     -0.06539         0.400181     -0.521985      0.507058
O	     13.15142      8.30616     -6.31548         0.404902     -0.097767      0.101650
O	     13.20985      4.25857     -2.18343         0.461068     -0.261191     -0.025230
O	      4.61800      8.34751     -1.98988         0.064959     -0.497301      0.141521
O	      4.61063      4.25764      1.93367         0.460806     -0.510396      0.305792
O	     13.09748     10.39032     -4.23313         0.299174      0.044451      0.093487
O	     13.14453      6.36222     -0.08589         0.285870     -0.185247     -0.025955
O	      6.61107      6.24136     -6.19457        -0.006395      0.361922      0.217802
O	     15.37811      4.11526     -4.12404        -0.076572      3.142929     -1.642392
O	     15.35022      8.42568     -8.31888        -0.519711     -0.250578     -0.068965
O	      6.59883      8.20356     -4.27102        -0.018739     -0.111357      0.149896
O	     15.36885      6.20010     -2.01874        -0.056672      1.582288     -2.144297
O	     15.35732     10.43076     -6.29934        -0.516237     -0.567195     -0.068031
O	      0.33420      2.26955     -0.19792        -1.684005     -0.820277      1.227446
O	      0.02660      6.41330     -4.36652         0.905502      0.113626     -0.439772
O	      8.76699      8.59607     -6.56984         0.059188      0.308558      0.470735
O	      0.29665      4.34874      1.90374        -1.915374     -0.133965      0.595789
O	      0.01478      8.50801     -2.27137         0.714408     -0.150136     -0.235442
O	      8.68696      6.39464     -0.00961        -0.183437      0.368405     -0.546104
O	      8.79019     10.53503     -4.31632         0.048658      0.151000     -0.327745
O	      2.17577      4.30054     -0.05127         0.010967      0.405447     -0.731190
O	      2.23194      8.51675     -4.37850        -0.391445      0.037779     -0.198837
O	     10.86170      6.29808     -2.26604        -0.500895      0.438256     -0.470098
O	     10.74044     10.59242     -6.58199        -0.149220      0.319671     -0.398918
O	      2.16350      2.20367     -2.15010         0.162779      0.413166     -0.548790
O	      2.25416      6.44830     -6.48738        -0.225343      0.087798      0.317250
O	     10.71803      4.31174     -4.23898        -0.377033      0.734006     -0.065367
O	     10.74079      8.62429     -8.56158        -0.262095      0.532991      0.238324
O	      0.00568      4.07813     -2.00472         1.122506      0.303092     -0.054508
O	      0.01805      8.30953     -6.25601         1.501188      0.089690     -0.208585
O	      8.64132      6.15670     -4.18513         0.353736      0.385693      0.611187
O	      7.75699      3.26794     -1.08279         1.669959      1.729575     -1.380573
O	      0.33355      6.25202      0.01067        -1.933601     -0.003491      0.304001
O	      0.01852     10.39416     -4.15615         1.654333      0.044253     -0.296765
O	      8.67304      8.39710     -2.16876         0.034941     -0.493973      0.102399
O	      8.67460     12.59519     -6.35346        -0.136279     -0.359231      0.396589
O	      2.30562      4.18045     -4.11857         0.337257     -0.196148      0.068754
O	      2.25735      8.41682     -8.32293         0.462223     -0.634155     -0.314619
O	     10.96208      6.30327     -6.21234         0.166644      0.164152      0.285304
O	     10.92610     10.59257    -10.49680         0.025976     -0.237282      0.639345
O	      2.28612      6.25812     -2.00703         0.438435     -0.466243      0.078691
O	      2.24372     10.43208     -6.29763         0.435500     -0.091255      0.502777
O	     10.95447      8.27381     -4.24326         0.190203     -0.203650      0.281727
O	     10.91875     12.54654     -8.54409        -0.019249     -0.494961      0.623251
