# total energy = -593.39996731 eV
 
CRYSTAL
PRIMVEC
0.001586 4.108000 4.136800 
17.310858 4.160389 -4.183027 
-0.015039 8.333168 -8.391060 
PRIMCOORD
125 1
Li	      9.00936      2.23590     -2.15107         0.069470      0.067770     -0.706595
Li	      8.85151      6.50682     -6.41177        -0.051095     -0.260320     -0.178252
Li	      0.43006      0.22177     -0.02390        -0.687487      0.084482     -0.241005
Li	      0.00148      4.38518     -4.22220         1.051476      0.061547     -0.317939
Li	      9.01597      4.42175      0.06464         0.042619      0.431744     -0.308886
Li	      8.84220      8.58832     -4.33730        -0.170883      0.138531      0.203339
Li	      0.42352      2.22852      1.99805        -0.728618      0.150291     -0.106333
Li	      0.02289      6.39870     -2.18777         0.960649      0.277340     -0.028228
Li	      2.17692      2.10189      0.00626         0.868533      0.448501     -0.151690
Li	      2.18570      6.35442     -4.27815        -0.157990      0.075519      0.022991
Li	     11.27865      4.26337     -2.15184         0.118939      0.562226     -0.429010
Li	     11.00206      8.51427     -6.45163        -0.050781      0.059431     -0.011741
Li	      2.13379      4.20534      2.11883         0.855362      0.273746     -0.311163
Li	      2.21358      8.46553     -2.15520        -0.086110     -0.089541     -0.003951
Li	     11.06670      6.38032     -0.04924        -0.154843      0.234688     -0.370291
Li	     10.97876     10.58051     -4.29788        -0.130328     -0.000923     -0.021107
Li	      4.22143      2.19419     -2.02772        -0.177097      0.106835     -0.328465
Li	      4.50952      6.37209     -6.40305         0.072886      0.009484      0.126699
Li	     13.40629      4.38316     -4.21539        -0.194805      0.106559     -0.410168
Li	     13.33562      8.52211     -8.57004         0.120849      0.198286      0.111504
Li	      4.21788      4.20375      0.04022        -0.266219      0.303552     -0.262860
Li	      4.53368      8.51614     -4.37265         0.124536     -0.019263     -0.093901
Li	     13.30187      6.39072     -2.18270        -0.174047      0.184717     -0.135795
Li	     13.33393     10.62238     -6.45377         0.132762     -0.041193     -0.132798
Li	      6.52731      4.31269     -2.19640        -0.031214      0.277478     -0.221449
Li	      6.67069      8.48038     -6.40645         0.001554      0.143995      0.038372
Li	     15.54046      6.35608     -4.25845        -0.356643      0.158455      0.047652
Li	     15.57375     10.61582     -8.55795        -1.345793     -0.213527      0.302770
Li	      6.67627      6.52733     -0.22540         0.095346      0.193602     -0.341732
Li	      6.71151     10.55963     -4.30376         0.116343      0.038949     -0.127192
Li	     15.53944      8.45911     -2.15157        -0.271995     -0.136836     -0.052212
Li	     15.56165     12.72358     -6.44979        -1.349535     -0.350070      0.183390
Ni	      0.01108      2.20138     -2.02076         3.314735     -0.287965     -1.841058
Ni	      0.04173      6.37741     -6.42008         2.009344      0.659824      1.320087
Ni	      8.82463      4.34782     -4.23968        -0.008312     -1.308657     -1.149549
Ni	      8.83359      8.57147     -8.47369        -0.113410     -1.401546     -1.292757
Ni	      0.01338      4.21128     -0.00036         3.121068      0.710289     -0.080240
Ni	      0.04405      8.48242     -4.29781         1.949312     -0.436537      0.090669
Ni	      8.86886      6.40235     -2.12567        -0.035655      0.916372      0.019638
Ni	      8.84367     10.62443     -6.40227        -0.140463      0.065758      0.945855
Ni	      2.25899      4.22985     -2.14580         0.253447      0.757420      0.596934
Ni	      2.28621      8.51870     -6.45158         0.736980      0.018368      1.011045
Ni	     11.04371      6.37482     -4.29304         0.045887     -0.015091      0.207557
Ni	     11.08809     10.68760     -8.62542         0.944907     -0.009388      0.490301
Ni	      2.26127      6.34383     -0.02085         1.221759     -0.122273     -0.217388
Ni	      2.29810     10.61354     -4.33336         0.537553     -0.590866     -0.546838
Ni	     11.01942      8.49167     -2.19415        -0.046080     -0.666225     -0.353146
Ni	     11.04695     12.79573     -6.50862         0.145730     -0.872889     -0.417369
Ni	      4.50848      4.30886     -4.13989        -0.032923     -0.802157     -1.138225
Ni	      4.48365      8.52990     -8.58319         0.088728      0.636889      0.926653
Ni	     13.22751      6.40350     -6.43921        -0.243472      0.992818      0.907479
Ni	     13.25929     10.67382    -10.73475        -0.014525      0.688280      1.339321
Ni	      4.47235      6.32767     -2.12233         0.144643      0.251113      0.035220
Ni	      4.48946     10.63593     -6.47945         0.129395     -0.431479     -0.006111
Ni	     13.22538      8.49607     -4.32380        -0.295483     -0.317352     -0.079889
Ni	     13.25781     12.78152     -8.61965        -0.059973     -0.514552      0.107217
Ni	      6.68374      6.35261     -4.29928        -0.038148      0.288159      0.258991
Ni	      6.68655     10.71459     -8.63497        -2.458692     -2.366882      2.533875
Ni	     15.48862      8.53136     -6.47368        -2.296282      1.075816      0.680051
Ni	     15.51077     12.80110    -10.75567        -1.789230     -1.620696      2.705025
Ni	      6.69394      8.50754     -2.22550         0.120944     -0.948577     -0.367756
Ni	      6.66678     12.66213     -6.38529         0.129223     -1.038023      0.025644
Ni	     15.48069     10.63640     -4.35572        -0.575711      0.004638     -0.447334
Ni	     15.50277     14.90611     -8.63642        -1.672867     -4.432958      1.671374
O	      4.48896      4.20462     -2.23170        -0.134361      0.907292      0.312581
O	      4.45483      8.65566     -6.51315        -0.321197      0.182313     -0.277570
O	     13.25685      6.49661     -4.36526        -0.083502      0.254840     -0.438232
O	     13.24262     10.75700     -8.69791        -0.424618     -0.094553     -0.527106
O	      4.59946      6.39754      0.01131        -0.609805      0.361099     -0.681967
O	      4.50590     10.65893     -4.48755        -0.367018     -0.135864     -0.276664
O	     13.22201      8.62145     -2.25766        -0.086743     -0.321345     -0.370908
O	     13.23126     12.87837     -6.60402        -0.237113     -0.254771      0.108091
O	      6.81683      4.34115     -4.22575         0.148076      0.600050      0.273750
O	      6.80565      8.62806     -8.60600        -0.077694      0.515938      0.520729
O	     15.46185      6.61720     -6.47449        -1.303853     -0.820965     -0.016373
O	     15.49927     10.88495    -10.75479        -1.990552     -0.400613     -0.130501
O	      6.72105      6.39401     -2.28853         0.086751      0.170462      0.009805
O	      6.83400     10.64532     -6.55482        -0.177380      0.466368     -0.371007
O	     15.47321      8.62422     -4.45393        -1.801041     -0.114101      0.108661
O	     15.49817     12.89245     -8.73247        -1.621575      0.347594      0.326136
O	      4.68236      6.22643     -4.24314        -0.220116      0.208416      0.722212
O	      4.59926      2.31050     -0.10717         0.524963     -0.661173      0.638680
O	     13.28067      8.38779     -6.37755         0.595644     -0.142019     -0.014662
O	     13.33961      4.34128     -2.24602         0.650837     -0.435122      0.034858
O	      4.66339      8.42955     -2.00943         0.119677     -0.592262      0.187460
O	      4.65587      4.34033      1.91154         0.584099     -0.607646      0.422741
O	     13.22620     10.49244     -4.27472         0.224639     -0.306928      0.037112
O	     13.27364      6.46560     -0.12787         0.474711     -0.242345      0.081268
O	      6.67604      6.30270     -6.25545        -0.016492      0.349624      0.230171
O	     15.52924      4.15570     -4.16457        -0.080935      4.139216     -2.075954
O	     15.50108      8.52863     -8.38036        -0.849957     -0.429540     -0.093765
O	      6.66369      8.28418     -4.31299        -0.020831     -0.191716      0.186904
O	     15.51989      6.26103     -2.03858        -0.061391      1.953511     -2.681192
O	     15.50824     10.53328     -6.36125        -0.788037     -0.639718      0.060007
O	      0.42235      2.31225     -0.22037        -2.168389     -0.737626      1.464023
O	      0.02686      6.47633     -4.40943         1.383621      0.063558     -0.645111
O	      8.85314      8.68055     -6.63441         0.062473      0.354392      0.597692
O	      0.38443      4.41188      1.90194        -2.497099     -0.002781      0.709956
O	      0.01493      8.59163     -2.29369         1.096817     -0.102904     -0.266881
O	      8.77234      6.45749     -0.00971        -0.222470      0.494377     -0.647495
O	      8.87659     10.63857     -4.35875         0.070247      0.143170     -0.433282
O	      2.19716      4.34281     -0.05177         0.130719      0.608699     -0.975076
O	      2.25388      8.60044     -4.42154        -0.631281     -0.045692     -0.261533
O	     10.96844      6.35998     -2.28831        -0.587822      0.497103     -0.553118
O	     10.84601     10.69653     -6.64668        -0.187910      0.396502     -0.463831
O	      2.18476      2.24546     -2.15094         0.193417      0.569586     -0.792089
O	      2.27630      6.51168     -6.55114        -0.402985      0.160278      0.519675
O	     10.82335      4.35412     -4.28064        -0.498802      0.865024     -0.041097
O	     10.84634      8.70905     -8.64572        -0.309820      0.620961      0.239017
O	      0.00574      4.11821     -2.02443         1.516055      0.394892     -0.290354
O	      0.01823      8.39120     -6.31749         2.026188      0.175642     -0.308155
O	      8.72625      6.21722     -4.22626         0.392350      0.409422      0.738136
O	      7.83322      3.30005     -1.09343         2.199684      2.165825     -1.729151
O	      0.42168      6.33386     -0.00973        -2.420405     -0.001179      0.126427
O	      0.01869     10.49630     -4.19699         2.150863      0.154667     -0.304474
O	      8.75828      8.47962     -2.19008         0.034001     -0.602733      0.128548
O	      8.75985     12.71898     -6.41590        -0.181899     -0.436074      0.526388
O	      2.32829      4.24167     -4.13877         0.446791     -0.286922      0.123112
O	      2.27955      8.51968     -8.38446         0.723855     -0.781751     -0.288178
O	     11.06983      6.36523     -6.27340         0.213487      0.194490      0.331113
O	     11.03348     10.69667    -10.59996         0.073454     -0.334184      0.787221
O	      2.30859      6.31961     -2.02676         0.540035     -0.570299      0.134481
O	      2.26576     10.53461     -6.35953         0.683429     -0.209771      0.530432
O	     11.06213      8.35513     -4.28496         0.700883     -0.014390      0.270467
O	     11.02606     12.66985     -8.62806         0.017052     -0.566012      0.788649
