# total energy = -587.94312331 eV
 
CRYSTAL
PRIMVEC
0.001594 4.128039 4.156979 
17.395301 4.180684 -4.203432 
-0.015112 8.373817 -8.431992 
PRIMCOORD
125 1
Li	      9.09748      2.27792     -2.15184         0.092304      0.090239     -0.815678
Li	      8.93808      6.59060     -6.45420        -0.053323     -0.282896     -0.202545
Li	      0.51912      0.26446     -0.02436        -1.067628      0.139290     -0.312736
Li	      0.00149      4.44821     -4.24321         1.572953      0.091752     -0.420819
Li	      9.10414      4.46499      0.06528         0.064603      0.493330     -0.385159
Li	      8.92868      8.67232     -4.37972        -0.041511      0.130559      0.234051
Li	      0.51252      2.27071      1.99708        -1.104004      0.196964     -0.167229
Li	      0.02310      6.46128     -2.20917         1.431374      0.354898     -0.022626
Li	      2.19820      2.12245      0.00632         1.285681      0.563577     -0.127927
Li	      2.20707      6.41656     -4.31998        -0.185947      0.126266      0.008130
Li	     11.38897      4.30507     -2.17289         0.133442      0.643836     -0.514413
Li	     11.10967      8.59754     -6.51473        -0.068233      0.079739      0.050987
Li	      2.15466      4.24646      2.13956         1.318007      0.272613     -0.338116
Li	      2.23523      8.54833     -2.17627        -0.098524     -0.091188     -0.045561
Li	     11.17493      6.44272     -0.04972        -0.199766      0.294148     -0.490506
Li	     11.08614     10.68399     -4.33991        -0.093100     -0.048643     -0.030006
Li	      4.26272      2.23579     -2.02727        -0.192599      0.115200     -0.435341
Li	      4.55364      6.43440     -6.46566         0.100321      0.022809      0.126853
Li	     13.53741      4.44617     -4.23634        -0.234955      0.164654     -0.517735
Li	     13.46603      8.60545     -8.65385         0.124898      0.185720      0.082882
Li	      4.25913      4.24486      0.04060        -0.293892      0.365955     -0.302560
Li	      4.57802      8.59943     -4.41542         0.137668     -0.007799     -0.125779
Li	     13.43197      6.45322     -2.20404        -0.214325      0.250673     -0.216885
Li	     13.46434     10.72628     -6.51689         0.132858     -0.056509     -0.094957
Li	      6.59115      4.35487     -2.21788        -0.000230      0.332150     -0.265694
Li	      6.73594      8.56331     -6.46910        -0.000742      0.177795      0.038167
Li	     15.69245      6.41824     -4.30010        -0.478485      0.211164      0.043062
Li	     15.72607     10.71964     -8.64165        -2.022593     -0.238590      0.351281
Li	      6.74157      6.59116     -0.22760         0.106235      0.225776     -0.403913
Li	      6.77713     10.66289     -4.34584         0.119395      0.051149     -0.151581
Li	     15.69143      8.54185     -2.17262        -0.321539     -0.153840     -0.078253
Li	     15.71385     12.84802     -6.51288        -2.020190     -0.432279      0.212746
Ni	      0.01121      2.24306     -2.02025         4.131813     -0.462944     -1.722183
Ni	      0.04214      6.43977     -6.48286         2.735505      0.725078      1.572646
Ni	      8.91095      4.41048     -4.26087        -0.011736     -1.522337     -1.343957
Ni	      8.92000      8.67543     -8.53628        -0.140810     -1.604838     -1.480705
Ni	      0.01352      4.25246     -0.00036         4.046253      0.672061     -0.096646
Ni	      0.04449      8.56538     -4.33984         2.690889     -0.623945      0.163729
Ni	      8.95559      6.46496     -2.14646        -0.094049      1.081383     -0.005341
Ni	      8.93016     10.72833     -6.46488        -0.154048      0.052018      1.083530
Ni	      2.28109      4.27123     -2.16679         0.362473      0.526512      0.453951
Ni	      2.30858      8.60202     -6.51468         0.927704      0.024978      1.203953
Ni	     11.15173      6.43716     -4.33502         0.197894      0.227037      0.236268
Ni	     11.19653     10.79213     -8.70978         1.080659     -0.026628      0.563552
Ni	      2.28338      6.40588     -0.02106         2.001717     -0.209621     -0.221136
Ni	      2.32058     10.71734     -4.37575         0.747635     -0.697187     -0.669105
Ni	     11.12718      8.57472     -2.21561        -0.047300     -0.746874     -0.543333
Ni	     11.15499     12.92087     -6.57227         0.164243     -1.002756     -0.445973
Ni	      4.55258      4.37114     -4.16010         0.006556     -0.949307     -1.412372
Ni	      4.52749      8.61333     -8.66714         0.121257      0.704500      1.077084
Ni	     13.35687      6.46612     -6.50219        -0.282216      1.124674      0.972660
Ni	     13.38896     10.77820    -10.83973        -0.070416      0.783017      1.589541
Ni	      4.51610      6.38955     -2.14308         0.104160      0.329414      0.078023
Ni	      4.53337     10.73995     -6.54281         0.136983     -0.525316      0.008652
Ni	     13.35472      8.57916     -4.36609        -0.214275     -0.268750     -0.098427
Ni	     13.38746     12.90652     -8.70395        -0.064553     -0.623291      0.142223
Ni	      6.74910      6.41474     -4.34133        -0.010318      0.307511      0.281102
Ni	      6.75194     10.81938     -8.71942        -3.116175     -2.891856      3.064303
Ni	     15.64011      8.61479     -6.53699        -3.306062      1.382483      0.727165
Ni	     15.66247     12.92629    -10.86085        -2.454743     -1.759984      3.017378
Ni	      6.75941      8.59074     -2.24727         0.169750     -1.083914     -0.407300
Ni	      6.73197     12.78596     -6.44773         0.140927     -1.234245      0.071756
Ni	     15.63209     10.74042     -4.39832        -0.829768     -0.056125     -0.489649
Ni	     15.65438     15.05189     -8.72088        -2.234123     -5.622916      1.705552
O	      4.53287      4.24573     -2.25352        -0.388428      1.073670      0.362800
O	      4.49838      8.74030     -6.57684        -0.353146      0.203972     -0.341673
O	     13.38651      6.56016     -4.40796        -0.182646      0.048128     -0.586940
O	     13.37214     10.86220     -8.78298        -0.492430      0.009646     -0.521644
O	      4.64444      6.46011      0.01142        -0.640050      0.450904     -0.825711
O	      4.54996     10.76317     -4.53144        -0.420220     -0.126153     -0.328602
O	     13.35131      8.70576     -2.27974        -0.090003     -0.387975     -0.500639
O	     13.36065     13.00433     -6.66861        -0.272816     -0.355790     -0.037614
O	      6.88349      4.38361     -4.26707         0.184875      0.691258      0.311003
O	      6.87220      8.71244     -8.69017        -0.062264      0.603433      0.569367
O	     15.61307      6.70204     -6.51752        -2.089158     -1.071129     -0.286814
O	     15.65085     11.01155    -10.83970        -2.673454     -0.600581     -0.041146
O	      6.78678      6.45655     -2.31092         0.681773      0.200938     -0.019757
O	      6.90084     10.74943     -6.61893        -0.160788      0.564311     -0.440408
O	     15.62455      8.70856     -4.49749        -2.220509      0.061500      0.194250
O	     15.64975     13.01854     -8.81787        -2.370283      0.352187      0.454854
O	      4.72816      6.28733     -4.28463        -0.118636      0.217550      0.857465
O	      4.64417      2.37394     -0.14935         0.655444     -0.789248      0.804885
O	     13.41054      8.46983     -6.43993         0.716018     -0.189388      0.160911
O	     13.46999      4.42458     -2.30912         0.765093     -0.432327      0.256570
O	      4.70900      8.51199     -2.02909         0.133418     -0.707677      0.274305
O	      4.70134      4.42363      1.88910         0.665980     -0.714197      0.532012
O	     13.35554     10.59504     -4.31652         0.457392     -0.123556      0.095053
O	     13.40338      6.56967     -0.17025         0.736306     -0.374804     -0.049685
O	      6.74133      6.36434     -6.31663        -0.008599      0.385810      0.289538
O	     15.68111      4.19635     -4.20530        -0.093965      5.289602     -2.386271
O	     15.65270      8.63218     -8.44205        -1.318067     -0.654856     -0.097485
O	      6.72886      8.36521     -4.35518        -0.007415     -0.217593      0.244366
O	     15.67169      6.32226     -2.05851        -0.050200      2.336175     -2.981836
O	     15.65991     10.63629     -6.42345        -1.198772     -0.650242      0.226697
O	      0.51133      2.35525     -0.24302        -2.804048     -0.604723      1.638063
O	      0.02713      6.53967     -4.45256         2.011615      0.200307     -0.718083
O	      8.93972      8.76544     -6.69929         0.071686      0.419576      0.650524
O	      0.47303      4.47542      1.90004        -3.403791      0.042200      0.542989
O	      0.01506      8.67566     -2.31613         1.697079     -0.211941     -0.463553
O	      8.85813      6.52063     -0.00980        -0.266625      0.580691     -0.769739
O	      8.96339     10.74260     -4.40137         0.049818      0.244712     -0.508901
O	      2.21865      4.38528     -0.05228         0.167150      0.696420     -1.157064
O	      2.27593      8.68455     -4.46478        -0.769284     -0.031580     -0.335824
O	     11.07572      6.42218     -2.31069        -0.688870      0.643156     -0.611082
O	     10.95208     10.80114     -6.71168        -0.260018      0.467342     -0.519593
O	      2.20615      2.28756     -2.15170         0.386322      0.871206     -0.781803
O	      2.29858      6.57537     -6.61522        -0.577840      0.233636      0.652797
O	     10.92920      4.39671     -4.32251        -0.576478      0.997681     -0.153783
O	     10.95242      8.79423     -8.73028        -0.382897      0.698825      0.255058
O	      0.00579      4.15848     -2.04423         2.658436      0.367978     -0.056068
O	      0.01841      8.47325     -6.37927         2.872781      0.305677     -0.200113
O	      8.81159      6.27801     -4.26759         0.334649      0.476376      0.833615
O	      7.90982      3.33232     -1.10413         2.793666      2.624483     -2.105379
O	      0.51066      6.41620     -0.03033        -3.365225     -0.012572     -0.044421
O	      0.01888     10.59896     -4.23804         2.626657      0.165775     -0.409251
O	      8.84393      8.56254     -2.21149         0.010709     -0.694813      0.183343
O	      8.84552     12.84336     -6.47865        -0.229318     -0.535298      0.632222
O	      2.35107      4.30329     -4.15897         0.486083     -0.032732      0.331139
O	      2.30185      8.62313     -8.44618         1.037569     -1.077105     -0.265311
O	     11.17809      6.42748     -6.33475         0.243089      0.153419      0.418070
O	     11.14138     10.80128    -10.70363         0.094749     -0.441095      0.937942
O	      2.33116      6.38142     -2.04658         0.037882     -0.657980      0.043240
O	      2.28793     10.63763     -6.42172         1.028690     -0.357289      0.667219
O	     11.17032      8.43684     -4.32687         0.238240     -0.306542      0.439603
O	     11.13390     12.79376     -8.71244         0.029093     -0.615708      0.927211
