# total energy = -93.06371244 eV
 
CRYSTAL
PRIMVEC
-2.080140 4.169141 -2.079382 
2.027890 4.116245 2.026423 
2.054192 0.026955 -6.159109 
PRIMCOORD
16 1
Li	     -0.02352      4.16778     -4.13890        -0.001527      0.002422      0.007780
Li	      2.02711      4.16789     -6.18047         0.006893      0.003541     -0.013457
Li	      0.03033      2.08732     -2.11278         0.008006     -0.002534      0.007299
Li	      2.02519      4.14253     -2.07514        -0.016601     -0.002158      0.013357
Mn	     -2.07795      4.16671     -2.07899         0.019673      0.005565     -0.030486
Mn	     -0.00675      6.22554     -2.12663         0.004494      0.001888      0.011218
Ni	      2.00356      6.22537     -4.13208         0.046379      0.001066     -0.063664
Ni	      1.97120      2.08347     -4.04816        -0.026683      0.000531      0.027320
O	     -0.00153      4.18909     -6.31734        -0.015606     -0.003075     -0.040701
O	      1.92322      6.21234     -2.10283        -0.134716     -0.005952      0.116284
O	      2.16315      4.14528     -4.14759         0.044075      0.016511     -0.017276
O	      2.01925      3.97694      0.08182         0.006437     -0.005809      0.014498
O	     -0.02902      6.24273     -4.05504        -0.103940     -0.012260      0.143458
O	     -0.05132      6.34453     -0.09764         0.083896      0.003835     -0.104441
O	     -0.13210      4.30495     -2.07627        -0.034088      0.006892      0.017842
O	      0.04547      1.93653      0.00126         0.113308     -0.010464     -0.089033
