# total energy = -576.65562102 eV
 
CRYSTAL
PRIMVEC
0.001609 4.168117 4.197338 
17.564188 4.221273 -4.244242 
-0.015259 8.455117 -8.513856 
PRIMCOORD
125 1
Li	      9.27502      2.36283     -2.15307         0.112061      0.171118     -1.017740
Li	      9.11249      6.75966     -6.53939        -0.056532     -0.340047     -0.228101
Li	      0.69980      0.35108     -0.02529        -2.329379      0.174850     -0.409715
Li	      0.00153      4.57546     -4.28526         3.397363      0.186536     -0.541532
Li	      9.28178      4.55211      0.06655         0.088787      0.603328     -0.566520
Li	      9.10289      8.84153     -4.46518        -0.032687      0.148375      0.283911
Li	      0.69304      2.35600      1.99484        -2.366302      0.206473     -0.175631
Li	      0.02356      6.58735     -2.25227         3.078556      0.437525     -0.071311
Li	      2.24109      2.16385      0.00645         2.749651      0.736775      0.069148
Li	      2.25014      6.54177     -4.40428        -0.193287      0.105813      0.044867
Li	     11.61118      4.38906     -2.21528         0.212416      0.820304     -0.682971
Li	     11.32643      8.76529     -6.64184        -0.052492      0.091070      0.068343
Li	      2.19669      4.32932      2.18130         2.791396      0.140488     -0.134223
Li	      2.27885      8.71512     -2.21874        -0.102674     -0.132344     -0.025261
Li	     11.39297      6.56843     -0.05069        -0.247607      0.391643     -0.817364
Li	     11.30245     10.89245     -4.42459        -0.102368     -0.055011     -0.030561
Li	      4.34591      2.31988     -2.02607        -0.250375      0.216369     -0.744570
Li	      4.64249      6.55995     -6.59182         0.128086      0.038624      0.140887
Li	     13.80157      4.57338     -4.27825        -0.327429      0.256606     -0.875561
Li	     13.72877      8.77336     -8.82270         0.120638      0.218232      0.132323
Li	      4.34222      4.32768      0.04141        -0.351791      0.517963     -0.464151
Li	      4.66734      8.76722     -4.50157         0.128499     -0.001295     -0.154471
Li	     13.69404      6.57913     -2.24705        -0.278428      0.356283     -0.306654
Li	     13.72704     10.93556     -6.64404         0.151963     -0.098506     -0.105460
Li	      6.71975      4.43983     -2.26115        -0.080080      0.449080     -0.369532
Li	      6.86736      8.73040     -6.59532        -0.005774      0.220111      0.041218
Li	     15.99864      6.54347     -4.38400        -0.723945      0.210511      0.126973
Li	     16.03290     10.92879     -8.81025        -4.207431     -0.260542      0.409072
Li	      6.87311      6.71976     -0.23204         0.072339      0.313138     -0.532092
Li	      6.90937     10.87095     -4.43064         0.105221      0.065717     -0.179789
Li	     15.99758      8.70851     -2.21501        -0.509736     -0.232819     -0.053999
Li	     16.02046     13.09871     -6.63996        -4.225627     -0.558599      0.232678
Ni	      0.01144      2.32729     -2.01891         6.467925     -0.839670     -0.925907
Ni	      0.04296      6.56543     -6.60936         4.574120      0.675149      1.908313
Ni	      9.08484      4.53700     -4.30326        -0.044762     -1.808630     -1.705964
Ni	      9.09406      8.88518     -8.66209        -0.167431     -1.953889     -1.800796
Ni	      0.01378      4.33544     -0.00037         6.735954     -0.061544      0.443593
Ni	      0.04535      8.73250     -4.42452         4.851391     -0.996224      0.448529
Ni	      9.13033      6.59111     -2.18834        -0.060110      1.357301      0.018427
Ni	      9.10440     10.93765     -6.59102        -0.194142      0.026741      1.314076
Ni	      2.32560      4.35457     -2.20907         0.473372      1.094695      0.765509
Ni	      2.35362      8.76986     -6.64179         1.254132     -0.019727      1.605135
Ni	     11.36931      6.56276     -4.41960         0.265864      0.296928      0.221672
Ni	     11.41499     11.00270     -8.87972         1.300199     -0.069746      0.693827
Ni	      2.32793      6.53087     -0.02147         5.049642     -0.218494     -0.319436
Ni	      2.36584     10.92645     -4.46113         1.067742     -0.919280     -0.778067
Ni	     11.34431      8.74203     -2.25884        -0.046247     -0.842430     -0.654621
Ni	     11.37263     13.17298     -6.70050         0.191127     -1.224339     -0.453609
Ni	      4.64142      4.49690     -4.20052        -0.092015     -1.197935     -1.566813
Ni	      4.61582      8.78139     -8.83624         0.132979      0.778903      1.322126
Ni	     13.61749      6.59228     -6.62905        -0.415474      1.432841      1.157579
Ni	     13.65020     10.98850    -11.05123        -0.125070      0.982905      1.923367
Ni	      4.60421      6.51423     -2.18490         0.137407      0.350428      0.125447
Ni	      4.62182     10.94950     -6.67047         0.135836     -0.690684      0.083748
Ni	     13.61530      8.74656     -4.45128        -0.296829     -0.302597     -0.162433
Ni	     13.64867     13.15835     -8.87378        -0.077695     -0.749259      0.164591
Ni	      6.88080      6.53991     -4.42604        -0.075937      0.307120      0.356750
Ni	      6.88369     11.03049     -8.88955        -4.678243     -3.945246      4.106052
Ni	     15.94526      8.78288     -6.66454        -5.704559      1.945972      0.735948
Ni	     15.96808     13.17851    -11.07278        -4.607056     -1.675198      3.216616
Ni	      6.89128      8.75836     -2.29111         0.130633     -1.337044     -0.429545
Ni	      6.86333     13.03543     -6.57354         0.146626     -1.557510      0.183198
Ni	     15.93710     10.94998     -4.48414        -1.129273     -0.075992     -0.640580
Ni	     15.95983     15.34558     -8.89104        -4.336872     -8.429194      0.997282
O	      4.62131      4.32858     -2.29749        -0.195673      1.278183      0.362561
O	      4.58616      8.91085     -6.70517        -0.376154      0.284590     -0.429829
O	     13.64770      6.68816     -4.49396        -0.162585      0.232227     -0.708751
O	     13.63306     11.07414     -8.95435        -0.613720      0.190126     -0.633297
O	      4.73507      6.58616      0.01164        -0.803521      0.527937     -1.000705
O	      4.63874     10.97318     -4.61986        -0.458418     -0.096821     -0.430393
O	     13.61183      8.87564     -2.32423        -0.080162     -0.386633     -0.739524
O	     13.62134     13.25806     -6.79873        -0.335486     -0.420913     -0.266023
O	      7.01781      4.46914     -4.35033         0.262703      0.862527      0.350559
O	      7.00630      8.88243     -8.85973        -0.066691      0.743360      0.637673
O	     15.91773      6.87328     -6.60395        -4.285571     -1.280292     -0.989563
O	     15.95624     11.26686    -11.01045        -4.484278     -0.978651      0.206426
O	      6.91920      6.58252     -2.35600         0.156096      0.214090     -0.030083
O	      7.03550     10.95917     -6.74808        -0.120546      0.726462     -0.574992
O	     15.92941      8.87848     -4.58524        -4.594751      0.711915     -0.081039
O	     15.95510     13.27255     -8.98992        -4.591986      0.276235      0.586577
O	      4.82042      6.41001     -4.36824         0.028413      0.331997      1.017672
O	      4.73464      2.50236     -0.23492         0.869792     -0.971468      1.201180
O	     13.67221      8.63509     -6.56558         0.858204     -0.267172      0.255522
O	     13.73266      4.59299     -2.43682         0.817641     -0.611235      0.750211
O	      4.80087      8.67808     -2.06867         0.250864     -0.840464      0.271405
O	      4.79291      4.59203      1.84331         0.867105     -0.920525      0.720956
O	     13.61613     10.80177     -4.40075         0.608078     -0.324128      0.088091
O	     13.66477      6.77995     -0.25623         0.889821     -0.733294     -0.016921
O	      6.87286      6.48851     -6.43987        -0.008900      0.442245      0.363632
O	     15.98708      4.27823     -4.28735        -0.028922      8.576577     -2.634344
O	     15.95812      8.84108     -8.56601        -2.921455     -1.110140     -0.082146
O	      6.86013      8.52842     -4.44015        -0.002112     -0.264210      0.349506
O	     15.97745      6.44562     -2.09868        -0.054205      3.160691     -3.533107
O	     15.96547     10.84382     -6.54879        -2.614760     -0.698141      0.527127
O	      0.69183      2.44219     -0.28898        -4.608267      0.048928      1.288960
O	      0.02766      6.66727     -4.53944         4.119718      0.607566     -0.759327
O	      9.11415      8.93647     -6.83001         0.078370      0.518339      0.844897
O	      0.65280      4.60373      1.89591        -5.250053      0.262550     -0.026801
O	      0.01537      8.84494     -2.36132         3.645806     -0.327978     -0.835268
O	      9.03097      6.64787     -0.00999        -0.355854      0.715613     -0.934183
O	      9.13829     10.95222     -4.48725         0.035496      0.313602     -0.639811
O	      2.26193      4.47085     -0.05330         0.054022      1.069178     -1.242799
O	      2.32033      8.85401     -4.55190        -0.979889      0.004055     -0.412543
O	     11.29183      6.54749     -2.35578        -0.846827      0.847429     -0.705907
O	     11.16577     11.01189     -6.84264        -0.354381      0.607120     -0.597792
O	      2.24919      2.37266     -2.15293         0.281902      0.858988     -1.386345
O	      2.34343      6.70366     -6.74429        -0.904735      0.300080      0.809520
O	     11.14246      4.48249     -4.40685        -0.709084      1.206414     -0.290740
O	     11.16612      8.96581     -8.90062        -0.440883      0.836955      0.230222
O	      0.00590      4.23962     -2.08411         4.788664      0.389752      0.050866
O	      0.01876      8.63858     -6.50374         5.654778      0.253414      0.249093
O	      8.98352      6.40051     -4.35086         0.243614      0.600513      0.992798
O	      8.06416      3.39734     -1.12567         4.289232      3.579798     -2.878238
O	      0.69117      6.58238     -0.07214        -6.381087      0.072937     -0.314000
O	      0.01925     10.80576     -4.32073         4.907216     -0.292359     -0.209283
O	      9.01649      8.72962     -2.25464        -0.044935     -0.878704      0.234480
O	      9.01812     13.09396     -6.60506        -0.314502     -0.723929      0.860879
O	      2.39696      4.42772     -4.19937         0.644813     -0.480295      0.173668
O	      2.34678      8.83185     -8.57022         2.300517     -1.788014     -0.324314
O	     11.39618      6.55289     -6.45835         0.246725      0.039014      0.540727
O	     11.35876     11.01203    -10.91247         0.123912     -0.671935      1.335947
O	      2.37666      6.50594     -2.08651         0.836858     -0.764004      0.261492
O	      2.33257     10.84519     -6.54702         2.269368     -0.481354      0.886754
O	     11.38828      8.60146     -4.41130         0.269124     -0.401651      0.633791
O	     11.35115     13.04339     -8.88244         0.035273     -0.709211      1.208648
