# total energy = -566.04227100 eV
 
CRYSTAL
PRIMVEC
0.001617 4.188156 4.217518 
17.648631 4.241568 -4.264647 
-0.015332 8.495766 -8.554788 
PRIMCOORD
125 1
Li	      9.36441      2.40574     -2.15354         0.106532      0.196386     -1.098423
Li	      9.20032      6.84494     -6.58213        -0.035588     -0.279276     -0.019032
Li	      0.79140      0.39499     -0.02576        -3.354461      0.160305     -0.456368
Li	      0.00156      4.63970     -4.30628         4.757274      0.297316     -0.571547
Li	      9.37124      4.59598      0.06719         0.088441      0.614833     -0.656808
Li	      9.19062      8.92675     -4.50821        -0.023089      0.055249      0.264808
Li	      0.78456      2.39910      1.99357        -3.431387      0.202649     -0.153848
Li	      0.02378      6.65084     -2.27397         4.347348      0.439384     -0.104840
Li	      2.26270      2.18471      0.00651         3.811684      0.858273      0.267423
Li	      2.27183      6.60481     -4.44673        -0.197616      0.097138      0.072726
Li	     11.72310      4.43137     -2.23664         0.250430      0.910114     -0.768430
Li	     11.43559      8.84977     -6.70586        -0.090201      0.085592      0.083534
Li	      2.21786      4.37104      2.20233         3.859962     -0.047681      0.053124
Li	      2.30082      8.79912     -2.24012        -0.097164     -0.132773     -0.048659
Li	     11.50277      6.63174     -0.05117        -0.253712      0.432694     -1.044739
Li	     11.41139     10.99745     -4.46724        -0.086700     -0.071550     -0.007873
Li	      4.38780      2.36237     -2.02532        -0.286486      0.258093     -0.923256
Li	      4.68723      6.62318     -6.65536         0.117085      0.045835      0.147099
Li	     13.93460      4.63760     -4.29921        -0.370273      0.191007     -1.010415
Li	     13.86110      8.85793     -8.90774         0.125358      0.348976      0.063456
Li	      4.38407      4.36939      0.04181        -0.458307      0.566416     -0.550967
Li	      4.71233      8.85172     -4.54496         0.122658     -0.002367     -0.163474
Li	     13.82604      6.64255     -2.26871        -0.299664      0.370527     -0.310837
Li	     13.85935     11.04096     -6.70808         0.171300     -0.090485     -0.164427
Li	      6.78452      4.48263     -2.28295        -0.106060      0.492894     -0.413736
Li	      6.93354      8.81454     -6.65889         0.001398      0.259173      0.035110
Li	     16.15284      6.60655     -4.42626        -0.794147      0.233415      0.193392
Li	     16.18745     11.03413     -8.89518        -5.908910     -0.223223      0.372245
Li	      6.93936      6.78454     -0.23428         0.086118      0.337232     -0.571845
Li	      6.97597     10.97572     -4.47335         0.021610      0.066315     -0.199540
Li	     16.15179      8.79244     -2.23636        -0.558328     -0.279126     -0.064226
Li	     16.17486     13.22495     -6.70395        -5.935187     -0.575152      0.177360
Ni	      0.01156      2.36986     -2.01810         7.994063     -1.214115     -0.087837
Ni	      0.04337      6.62871     -6.67306         5.766105      0.425846      2.047067
Ni	      9.17241      4.60087     -4.32446        -0.021291     -1.884995     -1.847601
Ni	      9.18171      8.99095     -8.72530        -0.157015     -1.960941     -1.849113
Ni	      0.01392      4.37723     -0.00038         8.127670     -1.212758      1.039595
Ni	      0.04579      8.81667     -4.46717         6.388050     -1.347912      0.733706
Ni	      9.21833      6.65464     -2.20943        -0.058414      1.458975     -0.005396
Ni	      9.19215     11.04308     -6.65455        -0.128332     -0.038404      1.207950
Ni	      2.34802      4.39654     -2.23035         0.550891      1.219281      0.871254
Ni	      2.37631      8.85439     -6.70581         1.414222     -0.080514      1.818529
Ni	     11.47889      6.62601     -4.46221         0.190329      0.354139      0.211053
Ni	     11.52502     11.10875     -8.96531         1.343694     -0.085058      0.724729
Ni	      2.35038      6.59381     -0.02167         6.075253     -0.425000     -0.458549
Ni	      2.38865     11.03177     -4.50412         1.198841     -1.065421     -0.757217
Ni	     11.45364      8.82629     -2.28062        -0.101683     -0.884557     -0.725867
Ni	     11.48225     13.29995     -6.76509         0.181788     -1.310107     -0.464005
Ni	      4.68617      4.56038     -4.22073        -0.074071     -1.233820     -1.668714
Ni	      4.66032      8.86602     -8.92141         0.152964      0.817330      1.432931
Ni	     13.74874      6.65583     -6.69295        -0.520210      1.622175      1.301582
Ni	     13.78177     11.09442    -11.15775        -0.145111      1.094646      2.047808
Ni	      4.64860      6.57701     -2.20596         0.123784      0.364241      0.103513
Ni	      4.66638     11.05504     -6.73477         0.120462     -0.760588      0.092570
Ni	     13.74653      8.83086     -4.49419        -0.363929     -0.398017     -0.264808
Ni	     13.78024     13.28518     -8.95931        -0.092804     -0.796495      0.164791
Ni	      6.94712      6.60294     -4.46870        -0.082679      0.338143      0.358721
Ni	      6.95003     11.13680     -8.97523        -5.573684     -4.462118      4.535274
Ni	     16.09896      8.86754     -6.72878        -7.270457      2.416928      0.595343
Ni	     16.12198     13.30552    -11.17949        -6.293488     -1.424865      3.005522
Ni	      6.95771      8.84277     -2.31319         0.113469     -1.421376     -0.438025
Ni	      6.92948     13.16107     -6.63690         0.157313     -1.692714      0.216052
Ni	     16.09071     11.05552     -4.52736        -1.187286     -0.087941     -0.695780
Ni	     16.11366     15.49349     -8.97674        -6.022400    -10.043684      0.066153
O	      4.66586      4.37030     -2.31964        -0.200490      1.419783      0.375656
O	      4.63037      8.99673     -6.76980        -0.362792      0.337533     -0.491819
O	     13.77925      6.75262     -4.53728        -0.107600      1.187200     -0.559381
O	     13.76444     11.18087     -9.04065        -0.651426      0.210012     -0.704211
O	      4.78071      6.64965      0.01175        -0.805246      0.614998     -1.098988
O	      4.68344     11.07894     -4.66438        -0.492925     -0.054470     -0.489995
O	     13.74302      8.96118     -2.34662        -0.038164     -0.531760     -1.401497
O	     13.75264     13.38585     -6.86425        -0.352552     -0.438889     -0.303551
O	      7.08545      4.51222     -4.39227         0.303163      0.914243      0.375020
O	      7.07382      8.96805     -8.94513        -0.031016      0.780085      0.699417
O	     16.07115      6.95966     -6.64732        -6.020552     -1.216434     -1.530789
O	     16.11004     11.39560    -11.09630        -5.858462     -0.938650      0.348798
O	      6.98589      6.64597     -2.37871         0.182371      0.237237     -0.037228
O	      7.10331     11.06481     -6.81312         0.022396      0.787906     -0.590745
O	     16.08294      8.96406     -4.62944        -6.395577      1.297107     -0.395100
O	     16.10889     13.40048     -9.07657        -6.216504      0.313946      0.499029
O	      4.86687      6.47179     -4.41034         0.036478      0.321991      1.120402
O	      4.78020      2.56732     -0.27832         1.005969     -1.096943      1.457544
O	     13.80399      8.71832     -6.62886         0.782650     -0.199385      0.887594
O	     13.86495      4.67811     -2.50144         0.801269     -0.702713      0.981369
O	      4.84715      8.76171     -2.08861         0.302065     -0.886540      0.271767
O	      4.83904      4.67714      1.81994         0.946805     -1.017845      0.863744
O	     13.74738     10.90589     -4.44318         0.619374     -1.200690     -0.152662
O	     13.79640      6.88614     -0.29983         0.867137     -0.876769      0.020040
O	      6.93912      6.55106     -6.50195         0.004433      0.457023      0.383628
O	     16.14117      4.31947     -4.32868        -0.017605     10.769652     -2.457406
O	     16.11194      8.94642     -8.62829        -4.263386     -1.343311     -0.064462
O	      6.92626      8.61062     -4.48294        -0.011542     -0.322079      0.380533
O	     16.13147      6.50774     -2.11891        -0.078149      3.517811     -3.737023
O	     16.11935     10.94834     -6.61191        -3.847353     -0.716973      0.614672
O	      0.78335      2.48612     -0.31226        -5.760665      0.487456      0.860758
O	      0.02792      6.73153     -4.58319         5.896579      0.787855     -0.768935
O	      9.20201      9.02261     -6.89584         0.083569      0.428104      0.968647
O	      0.74393      4.66849      1.89368        -6.570621      0.499955     -0.550810
O	      0.01551      8.93018     -2.38408         5.271621     -0.430008     -0.896382
O	      9.11802      6.71194     -0.01009        -0.414791      0.804108     -1.029769
O	      9.22637     11.05778     -4.53051        -0.042384      0.263495     -0.655292
O	      2.28374      4.51394     -0.05382         0.500115      1.080726     -1.373448
O	      2.34270      8.93935     -4.59577        -1.022309      0.131439     -0.406425
O	     11.40066      6.61059     -2.37848        -0.912326      0.896174     -0.748835
O	     11.27339     11.11802     -6.90859        -0.440485      0.687588     -0.601855
O	      2.27088      2.41566     -2.15341         0.354915      1.009643     -1.317697
O	      2.36600      6.76827     -6.80929        -0.929146      0.319275      0.730906
O	     11.24984      4.52570     -4.44932        -0.746908      1.311469     -0.346711
O	     11.27374      9.05223     -8.98640        -0.494809      0.860291      0.253032
O	      0.00596      4.28049     -2.10420         6.665011      0.336190      0.135585
O	      0.01895      8.72184     -6.56643         7.791735      0.044151      0.700512
O	      9.07011      6.46221     -4.39280         0.243797      0.602220      1.093887
O	      8.14188      3.43008     -1.13651         5.121703      4.101157     -3.320536
O	      0.78268      6.66621     -0.09334        -7.836999      0.459171     -0.513270
O	      0.01944     10.90992     -4.36238         6.832329     -0.747368      0.214822
O	      9.10339      8.81376     -2.27638        -0.101706     -0.914606      0.213521
O	      9.10503     13.22017     -6.66872        -0.341765     -0.776425      1.101151
O	      2.42007      4.49054     -4.21956         0.882136     -0.399042      0.218656
O	      2.36940      8.93712     -8.63255         3.330061     -2.294146     -0.405200
O	     11.50602      6.61604     -6.52060         0.285988     -0.013388      0.565731
O	     11.46824     11.11817    -11.01766         0.127567     -0.752978      1.560646
O	      2.39956      6.56864     -2.10662         0.952774     -0.809058      0.208915
O	      2.35505     10.94972     -6.61013         3.285438     -0.512383      1.094456
O	     11.49803      8.68436     -4.45381         0.447484     -0.446766      0.722611
O	     11.46054     13.16910     -8.96804         0.033361     -0.735860      1.288755
