# total energy = -602.84517392 eV
 
CRYSTAL
PRIMVEC
0.001547 4.007805 4.035902 
16.888642 4.058916 -4.081002 
-0.014672 8.129920 -8.186400 
PRIMCOORD
125 1
Li	      8.57675      6.03822      1.89004        -0.015265     -0.001609     -0.009089
Li	      8.42650     10.10334     -2.16535        -0.022835      0.008805     -0.034648
Li	     16.88757      8.08105     -0.06675        -0.002377      0.014579     -0.015281
Li	      0.00291      8.08393     -0.08129         0.000311      0.019386     -0.016141
Li	      8.58153      4.20868      0.06153        -0.018424      0.038264      0.016588
Li	      8.41613      8.17449     -4.12830        -0.021336      0.015701     -0.001939
Li	     16.87984      6.08106     -2.07969         0.006683      0.015557     -0.015087
Li	      0.02178      6.09037     -2.08235        -0.008099      0.014599     -0.024767
Li	      2.07203      2.00061      0.00596         0.014797      0.000054     -0.003024
Li	      2.08038      6.04823     -4.07200         0.004631      0.001169     -0.001022
Li	     10.73518      4.05794     -2.04815         0.039700      0.023468     -0.025044
Li	     10.47192      8.10400     -6.14075         0.000224     -0.004555     -0.003899
Li	      2.03098      4.00269      2.01674        -0.006055     -0.005222     -0.003597
Li	      2.10692      8.05762     -2.05135        -0.008532      0.001382     -0.010917
Li	     10.53343      6.07288     -0.04686         0.021459      0.008653      0.000895
Li	     10.44974     10.07069     -4.09078         0.002303     -0.003104     -0.001851
Li	      4.01952      5.99851      2.00746        -0.000284     -0.034780      0.039808
Li	      4.29223      6.06505     -6.09451        -0.001366      0.016983     -0.029378
Li	     12.76182      8.08201     -0.07481         0.009390      0.004320     -0.000053
Li	     12.69303      8.11146     -8.15708         0.002522      0.005145     -0.008627
Li	      4.01462      4.00118      0.03828         0.006316     -0.022103      0.000755
Li	      4.31522      8.10579     -4.16196        -0.004247      0.007653     -0.017035
Li	     12.66092      6.08278     -2.07753         0.021584     -0.005787      0.012147
Li	     12.69142     10.11053     -6.14279         0.011170      0.008594     -0.006510
Li	      6.21278      4.10487     -2.09056        -0.007903     -0.017296      0.027944
Li	      6.34926      8.07174     -6.09774        -0.013004     -0.017285      0.004705
Li	     14.79164      6.04980     -4.05325        -0.006749     -0.024339      0.031305
Li	     14.82332     10.10428     -8.14557        -0.012429     -0.016641      0.016310
Li	      6.35458      6.21281     -0.21454        -0.000012     -0.032738      0.018551
Li	      6.38810     10.05080     -4.09638        -0.012443     -0.014472      0.013215
Li	     14.79067      8.05150     -2.04790         0.001092     -0.027506      0.027876
Li	     14.81182     12.11049     -6.13901        -0.010301     -0.015530      0.019467
Ni	      0.01207      6.00537      2.01407        -0.030473     -0.038792      0.046230
Ni	      0.03972      6.07011     -6.11072        -0.008751     -0.051436      0.056425
Ni	      8.40092      8.04837     -0.09793        -0.043898     -0.071203      0.190675
Ni	      8.40945     12.06850     -4.12791        -0.087840      0.043143     -0.014682
Ni	      0.01273      4.00836     -0.00035        -0.006549     -0.049834      0.035867
Ni	      0.04193      8.07369     -4.09071        -0.019750     -0.066998      0.055042
Ni	      8.44151      6.09385     -2.02324        -0.052588     -0.175059      0.048895
Ni	      8.41754     10.11248     -6.09377        -0.082046      0.015575     -0.034217
Ni	      2.15014      4.02604     -2.04240        -0.009058      0.004446     -0.007895
Ni	      2.17605      8.10822     -6.14071         0.002916      0.013047     -0.006897
Ni	     10.51157      6.06764     -4.08617        -0.066929     -0.073944      0.045894
Ni	     10.55380     10.17262     -8.20980        -0.038828     -0.010143      0.016054
Ni	      2.15231      6.03816     -0.01985         0.016052      0.000979     -0.006368
Ni	      2.18736     10.10212     -4.12456         0.019476     -0.004635     -0.005467
Ni	     10.48844      8.08249     -2.08842        -0.038514     -0.024613      0.032431
Ni	     10.51464     12.17916     -6.19499        -0.040850     -0.001513      0.016360
Ni	      4.29275      8.01130     -0.00294         0.033806      0.026970     -0.009710
Ni	      4.26758      8.11888     -8.16961         0.059314      0.032012     -0.031710
Ni	     12.59014      6.09494     -6.12894         0.050273      0.004864     -0.020257
Ni	     12.62038     10.15948    -10.21749         0.045548     -0.006514      0.011709
Ni	      4.25685      6.02276     -2.02006         0.019137     -0.006863     -0.013199
Ni	      4.27314     10.12343     -6.16723         0.076983      0.050428     -0.048027
Ni	     12.58811      8.08668     -4.11546         0.055732      0.006838      0.008272
Ni	     12.61897     12.16563     -8.20431         0.043033      0.001270      0.010581
Ni	      6.36168      6.04651     -4.09212         0.036542      0.009075     -0.013011
Ni	      6.36435     10.19831     -8.21889        -0.198214     -0.066763      0.047742
Ni	     14.74229      8.12027     -6.16174         0.035171      0.035088     -0.047330
Ni	     14.76338     12.18427    -10.23740         0.018911      0.059710     -0.057767
Ni	      6.37138      8.09760     -2.11826         0.009793      0.029472     -0.055423
Ni	      6.34553     12.05199     -6.07761         0.006264      0.230653     -0.210781
Ni	     14.73475     10.12387     -4.14584         0.006640      0.035204     -0.049504
Ni	     14.75577     14.18785     -8.22027         0.011927      0.057733     -0.053864
O	      4.27265      4.00202     -2.12416         0.086646     -0.056877      0.152155
O	      4.24016      8.23858     -6.19930         0.065578     -0.185140      0.151039
O	     12.61807      6.18357     -4.15492         0.063346     -0.134196      0.116903
O	     12.60452     10.23867     -8.27881         0.078996     -0.150233      0.141149
O	      4.37783      6.08927      0.01076         0.038410     -0.166975      0.058164
O	      4.28877     10.14532     -4.27131         0.059078     -0.147012      0.169118
O	     12.58491      8.20602     -2.14888         0.058327     -0.146651      0.101880
O	     12.59370     12.25782     -6.28580         0.043348     -0.144578      0.151879
O	      6.48836      4.13198     -4.02213        -0.130841     -0.143796      0.071735
O	      6.47772      8.21232     -8.19132        -0.088147     -0.114306      0.166836
O	     14.71831     10.20839     -2.22504        -0.008212     -0.129996      0.109443
O	     14.75393     14.27051     -6.29910         0.047079     -0.113201      0.106929
O	      6.39720      6.08592     -2.17826        -0.030650     -0.129966      0.155796
O	      6.50471     10.13238     -6.23898        -0.102125     -0.165215      0.123651
O	     14.72762      8.20866     -4.23932        -0.011741     -0.115692      0.109959
O	     14.75138     12.27122     -8.31169         0.044062     -0.104620      0.122991
O	      4.45673      5.92641     -4.03868        -0.250607      0.128090     -0.054506
O	      4.36333     10.13080     -8.08874        -0.128189      0.135611     -0.126099
O	     12.64073      7.98363     -6.07024        -0.072409      0.137478     -0.102296
O	     12.68251     12.06371    -10.12452        -0.063812      0.154166     -0.134553
O	      4.43869      8.02337     -1.91260        -0.119941      0.076931     -0.161814
O	      4.41722     12.06282     -6.16730        -0.162275      0.133225     -0.120779
O	     12.58887      9.98685     -4.06874        -0.047485      0.132726     -0.112050
O	     12.61974     14.08568     -8.10844        -0.052335      0.141379     -0.144936
O	      6.35435      5.99900     -5.95402        -0.004768      0.162984     -0.184502
O	     14.78095      3.95546     -3.96389         0.021672      0.120140     -0.121867
O	     14.75566     12.02773     -4.03908         0.008738      0.104990     -0.116088
O	      6.34259      7.88501     -4.10517         0.008008      0.234042     -0.117372
O	     14.77205      5.95933     -1.94034         0.014319      0.125756     -0.112908
O	     14.76097     10.02573     -6.05473         0.001167      0.111086     -0.119023
O	     16.87872      6.16075     -4.19121        -0.015994     -0.105324      0.108766
O	      0.02556      6.16426     -4.19696        -0.011392     -0.106176      0.108856
O	      8.42655      8.26228     -6.31472         0.017935     -0.166969      0.188251
O	     16.84263      8.15921     -2.17117        -0.024522     -0.108330      0.114576
O	      0.01421      8.17764     -2.18318         0.003907     -0.113101      0.104292
O	      8.34963      6.14633     -0.00924         0.004395     -0.169029      0.104973
O	      8.44885     10.12594     -4.14871         0.027457     -0.177446      0.188142
O	      2.09129      4.13355     -0.04928         0.046360     -0.094733      0.143944
O	      2.14529      8.18603     -4.20849         0.024220     -0.127110      0.122421
O	     10.43992      6.05352     -2.17805         0.122362     -0.070246      0.155639
O	     10.32339     10.18111     -6.32641         0.194919     -0.027412      0.120183
O	      2.08100      6.04732      1.89017         0.053426     -0.141389      0.085539
O	      2.16663      6.19791     -6.23547         0.036672     -0.127012      0.117572
O	     10.30182      4.14431     -4.07438         0.221432     -0.098709      0.057723
O	     10.32371      8.28940     -8.22912         0.182239     -0.120088      0.039353
O	      0.00546      3.91977     -1.92688        -0.046506      0.100101     -0.109087
O	      0.01734      7.98686     -6.01307        -0.002580      0.105092     -0.106746
O	      8.30576      5.91763     -4.02261         0.167874      0.175260     -0.075857
O	      7.45577      3.14103     -1.04075         0.304164      0.269123     -0.260864
O	     16.87810      9.98858     -3.99073        -0.024784      0.102758     -0.116805
O	      0.01780      9.99053     -3.99476         0.000005      0.105405     -0.113359
O	      8.33625      8.07102     -2.08454         0.107348      0.102785     -0.126047
O	      8.33774     12.10610     -6.10674         0.108435      0.119206     -0.135280
O	      2.21762      7.94735     -0.00188        -0.056765      0.099679     -0.146470
O	      2.17122     12.01920     -4.04298        -0.084312      0.119314     -0.110599
O	     10.53641      6.05851     -5.97111        -0.072850      0.091215     -0.183320
O	     10.50182     10.18124    -10.08920        -0.105233      0.049868     -0.161242
O	      2.19734      6.01510     -1.92910        -0.079127      0.131956     -0.098410
O	      2.15659     10.02699     -6.05309        -0.087055      0.116980     -0.117841
O	     10.52910      7.95254     -4.07849        -0.083152      0.183764     -0.081090
O	     10.49477     12.05935     -8.21232        -0.087865      0.160875     -0.035776
