# total energy = -602.06087564 eV
 
CRYSTAL
PRIMVEC
0.001235 3.991710 4.006144 
17.091784 4.027665 -4.037099 
-0.035619 8.112727 -8.141672 
PRIMCOORD
125 1
Li	      8.74846     10.16911    -10.17004        -0.034839      0.002009     -0.005629
Li	      8.44280     10.04018     -2.12277         0.022389      0.020845     -0.022113
Li	     17.04138      8.03703     -0.05233        -0.002903      0.023767     -0.021980
Li	     17.05141      8.14392     -8.14806        -0.005747      0.020882     -0.015673
Li	      8.74567     12.15123     -8.19634        -0.036307     -0.000632      0.000756
Li	      8.49543      8.09090     -4.12515         0.004079      0.022551     -0.021693
Li	     17.04223      6.04583     -2.05505         0.001847      0.020448     -0.026205
Li	     16.96076     10.12684     -6.16848        -0.029434      0.020556     -0.016495
Li	      1.92107      2.00459      0.00236         0.002333     -0.016959      0.019391
Li	      2.08421      6.07108     -4.09546        -0.005729      0.017845     -0.011518
Li	     10.75351      4.04061     -2.04997        -0.006510      0.005311     -0.002382
Li	     10.60306      8.06574     -6.08666        -0.009186     -0.014647      0.005453
Li	      1.99700      4.00341      1.98471         0.000368     -0.001850      0.003335
Li	      2.18859      8.08431     -2.11823        -0.004356      0.003923     -0.015717
Li	     10.68365      6.03854     -0.02955        -0.005809     -0.001639     -0.000404
Li	     10.62302     10.06414     -4.09023        -0.008540     -0.006993      0.013451
Li	      3.97049      1.96612     -1.74307         0.014174      0.015886     -0.017627
Li	      4.34374      6.14521     -6.14026         0.000486     -0.004318      0.028861
Li	     12.85067      8.02708     -0.04128        -0.006853      0.007731     -0.005668
Li	     12.80434      8.08898     -8.11231        -0.003247     -0.002119      0.002015
Li	      3.98787      3.81442      0.00665        -0.009269      0.021585     -0.006867
Li	      4.31222      8.09915     -4.14899         0.011370     -0.041172      0.014430
Li	     12.84609      6.03608     -2.03872        -0.007253      0.007721     -0.005058
Li	     12.80974     10.08683     -6.11012        -0.003929     -0.000494      0.000569
Li	      6.36522      4.24648     -2.22438         0.016750     -0.035400      0.023157
Li	      6.40611      8.03985     -6.08584         0.032233     -0.031625      0.028115
Li	     14.94688      6.00878     -4.01991        -0.001807     -0.013902      0.015118
Li	     14.94826     10.07813     -8.11118        -0.009573     -0.017367      0.010806
Li	      6.67020      6.26554     -0.17467        -0.024711     -0.025779      0.035527
Li	      6.42933     10.03574     -4.08001         0.033694     -0.026223      0.026592
Li	     14.95111      8.01052     -2.02147        -0.000511     -0.013517      0.014550
Li	     14.95643     12.07825     -6.09973        -0.015286     -0.009298      0.014248
Ni	     17.06225      6.05027     -6.05525        -0.038779     -0.020970      0.020887
Ni	      0.02146     10.06443     -2.09440        -0.033317     -0.064075      0.064444
Ni	      8.51240      3.99724     -3.98526        -0.027868     -0.037625      0.062869
Ni	      8.52943     12.05849     -4.09680         0.011482     -0.074739      0.072683
Ni	     17.06029      8.03425     -4.05930        -0.047100     -0.016308      0.032520
Ni	      0.01222      8.07279     -4.10038        -0.048371     -0.066613      0.061253
Ni	      8.54227      5.98078     -1.99153        -0.069833     -0.064050      0.051580
Ni	      8.53260     10.07752     -6.11028        -0.000415     -0.072934      0.055445
Ni	      2.17058      4.02570     -2.02205        -0.034887      0.054966     -0.020548
Ni	      2.17785      8.12266     -6.15370        -0.093708     -0.023960      0.002833
Ni	     10.66605      6.03759     -4.04909        -0.093480     -0.019813      0.022350
Ni	     10.69731     10.11552     -8.14395        -0.084951     -0.004891      0.002888
Ni	      1.98939      6.04737     -0.04502         0.073959      0.027816     -0.029987
Ni	      2.15720     10.11063     -4.15793        -0.109234     -0.018619      0.022887
Ni	     10.63786      8.03325     -2.03514        -0.051838     -0.027516      0.031052
Ni	     10.69017     12.11260     -6.14464        -0.089317     -0.001709      0.000070
Ni	      4.21735      4.15432     -4.06463         0.044358     -0.125794      0.012783
Ni	      4.31193     12.09498     -4.15057         0.014903      0.034347     -0.042230
Ni	     12.76214      6.05817     -6.07275         0.007293      0.000962      0.007307
Ni	     12.79412     10.12129    -10.15195         0.017086      0.009631     -0.009716
Ni	      4.27757      6.02380     -2.13850         0.026398     -0.028558      0.131720
Ni	      4.31061     10.12367     -6.16113         0.011939      0.142590     -0.095646
Ni	     12.76401      8.05470     -4.06802         0.008216     -0.001887      0.004132
Ni	     12.79355     12.11856     -8.14862         0.021181      0.011771     -0.012629
Ni	      6.38598      6.07189     -4.12802         0.086953     -0.000947     -0.019283
Ni	      6.43489      9.99935     -8.01400         0.121419      0.253885     -0.258154
Ni	     14.89602      8.09877     -6.11776         0.030839      0.069609     -0.056323
Ni	     14.91410     12.14358    -10.17938         0.033561      0.050852     -0.047480
Ni	      6.34557      8.05394     -2.08600         0.060366     -0.040187     -0.002393
Ni	      6.42305     12.01035     -6.04482         0.166600      0.239129     -0.225072
Ni	     14.88888     10.09696     -4.11536         0.034550      0.059935     -0.063251
Ni	     14.91087     14.14031     -8.17546         0.036676      0.046231     -0.054270
O	      4.36459      4.09518     -1.99177         0.040644     -0.191854      0.088565
O	      4.21724      8.21357     -6.16474         0.108334     -0.200203      0.084078
O	     12.77504      6.14459     -4.15392         0.078780     -0.139242      0.126782
O	     12.79231     10.20896     -8.23966         0.077142     -0.143124      0.128003
O	      4.20571     10.13113     -4.30116         0.101531     -0.043612      0.177232
O	     12.78200      8.14420     -2.15638         0.069562     -0.129658      0.127997
O	     12.78899     12.20613     -6.23685         0.071759     -0.129832      0.140569
O	      6.30327      8.10447     -0.14614         0.002476     -0.135743      0.117294
O	      6.42518     12.08428     -4.12790        -0.092040     -0.205737      0.165247
O	     14.90875     10.18239     -2.20514         0.013550     -0.130658      0.125822
O	     14.91994     14.22066     -6.26057         0.026990     -0.120077      0.112109
O	      6.20805      6.12363     -1.96051         0.125468     -0.105879      0.066523
O	      6.40965     10.09189     -6.10156        -0.070000     -0.176697      0.201689
O	     14.90458      8.18835     -4.20519         0.015068     -0.128808      0.130825
O	     14.91811     12.22856     -8.26282         0.027147     -0.118378      0.119990
O	      4.46969      6.09714     -4.10447        -0.120240      0.142708     -0.149637
O	      4.47608     10.12391     -8.06806        -0.165355      0.020422     -0.112378
O	     12.76443      7.96477     -5.98128        -0.057144      0.121760     -0.124926
O	     12.79059     12.02974    -10.06143        -0.070386      0.122556     -0.131477
O	      4.22779      7.87559     -2.00208        -0.093457      0.209690     -0.096651
O	      4.55246      4.11993      1.84657        -0.175592      0.074734     -0.042338
O	     12.76578      9.96406     -3.98417        -0.064848      0.135296     -0.120189
O	     12.78561     14.02751     -8.05779        -0.065908      0.132102     -0.124306
O	      6.39338      9.90724     -2.12585        -0.013673      0.178388     -0.145198
O	     14.93761      3.93234     -3.93991         0.001257      0.138129     -0.141411
O	     14.91308      8.00229     -8.01869        -0.005777      0.124039     -0.122340
O	      6.45677      7.93933     -3.95965        -0.002934      0.193886     -0.160057
O	     14.94152      5.93037     -1.93424         0.001646      0.143770     -0.134745
O	     14.90953      9.99888     -6.01913        -0.011201      0.122752     -0.112740
O	     16.99700      6.13035     -4.15297         0.021469     -0.145246      0.145815
O	     -0.00163      6.17013     -4.18817        -0.007186     -0.124845      0.109278
O	      8.35431      3.99689     -2.07565        -0.024090     -0.139592      0.201586
O	      8.60340      8.18730     -6.15896         0.006278     -0.215950      0.176331
O	     17.03615      8.14161     -2.15846         0.007217     -0.133622      0.147519
O	      0.01793      8.15932     -2.19018        -0.010006     -0.110202      0.124384
O	      8.50541      6.06446      0.01350         0.004583     -0.184124      0.136441
O	      8.63014     10.11916     -4.22755         0.006486     -0.164579      0.204524
O	      2.08483      4.05336     -0.12546         0.110398     -0.094847      0.167612
O	      2.07871      8.20470     -4.24855         0.110352     -0.142157      0.154070
O	     10.62495      6.10804     -2.14071         0.076797     -0.124545      0.122536
O	     10.65055     10.21723     -6.25142         0.065632     -0.129626      0.131981
O	      2.09375      2.12004     -2.04827         0.085280     -0.161103      0.088133
O	      2.12544     10.19672     -2.23602         0.076337     -0.151151      0.138151
O	     10.62947      4.13738     -4.11781         0.083192     -0.133626      0.128420
O	     10.63999     12.21052     -4.24461         0.066122     -0.127404      0.124191
O	     17.07178      7.97119     -5.97388         0.018360      0.119388     -0.132555
O	     17.05328     12.00917    -10.05656         0.029340      0.135463     -0.136136
O	      8.36845      5.91458     -3.98395         0.034210      0.178942     -0.115305
O	      8.42015     10.09053     -8.06773         0.106820      0.179429     -0.190183
O	     17.06012      9.96404     -3.98261        -0.027303      0.115326     -0.110988
O	     17.06018     14.01510     -8.04788         0.025563      0.134203     -0.132524
O	      8.51821      7.95891     -1.87278        -0.026201      0.127158     -0.198858
O	      8.42767     12.03287     -6.11775         0.093955      0.204158     -0.191808
O	      2.23155      4.02121     -3.91949        -0.111389      0.094857     -0.144458
O	      2.16144     12.02568     -4.06889        -0.018697      0.174829     -0.165192
O	     10.66850      5.94881     -5.94946        -0.057303      0.146066     -0.139260
O	     10.69543     10.02847    -10.04749        -0.063476      0.126236     -0.122981
O	      2.36927      5.93770     -2.01520        -0.175794      0.114002     -0.075302
O	      2.13996     10.04914     -6.08500        -0.033350      0.172427     -0.172130
O	     10.65045      7.92903     -3.94060        -0.051491      0.139181     -0.132622
O	     10.69618     12.02495     -8.05849        -0.067506      0.122568     -0.119069
