# total energy = -602.68818611 eV
 
CRYSTAL
PRIMVEC
0.001112 3.989176 4.001533 
17.059811 4.042902 -4.050802 
-0.019544 8.110140 -8.134868 
PRIMCOORD
125 1
Li	      8.72702      2.07217     -2.07398        -0.020723      0.015846     -0.013550
Li	      8.47147     10.09586     -2.14219         0.007329      0.009722     -0.021460
Li	     17.01557      4.07082     -4.07544         0.009186      0.022168     -0.024642
Li	     17.02395      8.13136     -8.14559        -0.013834      0.019389     -0.013452
Li	      8.71399     12.15935     -8.19068        -0.020691      0.001797     -0.002277
Li	      8.75532      8.10527     -4.13264        -0.011915      0.022258     -0.018933
Li	     17.01739      6.06373     -2.07648         0.009707      0.022522     -0.026466
Li	     17.03573     10.12453     -6.15280        -0.012330      0.012499     -0.018118
Li	      2.03061      1.98849      0.01324         0.020398      0.000269     -0.003968
Li	      2.14908      6.06189     -4.09004         0.013603      0.008709      0.000917
Li	     10.65095      4.05872     -2.05083        -0.031135      0.001360      0.001831
Li	     10.60600      8.08915     -6.12094        -0.003784     -0.011086      0.009483
Li	      2.03393      3.97730      2.00885         0.024246      0.005343     -0.002685
Li	      2.05602      8.06747     -2.07314        -0.009129     -0.011200      0.002250
Li	     10.64982      6.03923     -0.06587        -0.028964     -0.001284      0.000598
Li	     10.61200     10.09310     -4.11206        -0.008926     -0.009647      0.006006
Li	      4.06895      1.99118     -1.98734         0.020594      0.003784      0.002793
Li	      4.33431     10.08349     -2.12937        -0.004940     -0.008064     -0.005110
Li	     12.82766      4.04906     -4.05566        -0.008704      0.006928     -0.001884
Li	     12.80081      8.10563     -8.12483        -0.005587     -0.001911      0.003986
Li	      4.07009      4.00078     -0.01033         0.009640     -0.006105      0.005010
Li	      4.02949      8.07055     -4.10109         0.015051     -0.010226      0.013719
Li	     12.82306      6.04198     -2.05568        -0.012750      0.005504     -0.005956
Li	     12.79759     10.09609     -6.12286         0.000699     -0.002426      0.000303
Li	      6.38584      4.26132     -2.20095         0.013665     -0.043140      0.050486
Li	      6.43053      8.02838     -6.24670         0.011885     -0.040828      0.001942
Li	     14.93803      6.02738     -4.04073        -0.006257     -0.012303      0.014602
Li	     14.94251     10.08229     -8.10794        -0.021486     -0.018006      0.018965
Li	      6.38895      6.19711     -0.23757         0.014988     -0.047897      0.064752
Li	      6.43083     10.19039     -4.06209         0.017679      0.003938      0.016191
Li	     14.94219      8.02221     -2.03729        -0.010974     -0.011953      0.013238
Li	     14.94292     12.07731     -6.10583        -0.020181     -0.018297      0.020582
Ni	     -0.00256      2.01926     -2.02537        -0.019823     -0.042592      0.037319
Ni	      0.00592      6.07184     -6.08875        -0.029304     -0.046414      0.047976
Ni	      8.46949      4.01354     -4.01076         0.053330     -0.049663      0.057907
Ni	      8.51975     12.06289     -4.09973         0.020493     -0.052673      0.053604
Ni	     17.05372      8.05701     -4.07720        -0.029539     -0.047447      0.052164
Ni	      0.00265      8.06558     -4.08890        -0.056181     -0.049497      0.051910
Ni	      8.47261      6.01656     -2.02433         0.058920     -0.074548      0.085401
Ni	      8.50638     10.07474     -6.10859         0.035891     -0.027685      0.020963
Ni	      2.17443      4.04097     -2.04279        -0.037147      0.004897     -0.010683
Ni	      2.15562      8.10619     -6.12822        -0.052518     -0.023306      0.013286
Ni	     10.62473      6.04988     -4.06098        -0.016273      0.011755      0.011944
Ni	     10.66491     10.12727     -8.15329        -0.075765     -0.020815     -0.015394
Ni	      2.16999      6.02718     -0.04479        -0.031040      0.005649      0.016472
Ni	      2.15119     10.10183     -4.13485        -0.057220     -0.014866      0.019125
Ni	     10.66422      8.04709     -2.05653        -0.092468     -0.005640     -0.006220
Ni	     10.66350     12.11976     -6.15392        -0.074732      0.008283      0.019117
Ni	      4.30411      4.04290     -4.04088        -0.033277      0.007894     -0.006501
Ni	      4.28605     12.08899     -4.12488         0.006208      0.025241     -0.031106
Ni	     12.75496      6.07027     -6.08210         0.008580      0.003850     -0.003565
Ni	     12.76909     10.13363    -10.16023        -0.000211      0.009898     -0.001950
Ni	      4.30207      6.04409     -2.05090        -0.038166     -0.000244      0.013051
Ni	      4.30158     10.09827     -6.13098        -0.025871      0.052124     -0.063732
Ni	     12.76396      8.06168     -4.08116         0.021890      0.006687      0.007232
Ni	     12.77264     12.12688     -8.15773         0.010557      0.009158     -0.005850
Ni	      6.37594      6.01996     -4.12984         0.063238      0.241810     -0.067960
Ni	      6.40491     10.02032     -7.99779         0.066950      0.240592     -0.317438
Ni	     14.88780      8.10734     -6.12648         0.011953      0.047407     -0.050246
Ni	     14.89190     12.15994    -10.19110         0.020663      0.064630     -0.050600
Ni	      6.39319      8.07585     -2.02403         0.057358      0.058758     -0.226517
Ni	      6.40522     11.96529     -6.04657         0.063328      0.306752     -0.258197
Ni	     14.89041     10.10259     -4.12578         0.016185      0.049956     -0.042965
Ni	     14.89302     14.15503     -8.18974         0.019790      0.044424     -0.051691
O	      4.32414      4.11171     -2.01890         0.073172     -0.143753      0.097060
O	      4.23196      8.20047     -6.12149         0.101623     -0.184290      0.129595
O	     12.77048      6.15393     -4.17327         0.045277     -0.141440      0.133993
O	     12.76943     10.21733     -8.24945         0.067771     -0.139393      0.127116
O	      4.32876      6.01905     -0.13465         0.068930     -0.085974      0.163634
O	      4.21746     10.09452     -4.24867         0.100596     -0.155575      0.181054
O	     12.76740      8.15031     -2.15851         0.053112     -0.128974      0.137886
O	     12.76961     12.21416     -6.24447         0.072387     -0.127771      0.140712
O	      6.38532      4.05330     -4.04457        -0.029104     -0.147138      0.139447
O	      6.40640     12.10627     -4.14537        -0.045593     -0.184537      0.193195
O	     14.89928     10.18685     -2.21383         0.009029     -0.122091      0.120868
O	     14.89611     14.23823     -6.27564         0.037071     -0.124449      0.126349
O	      6.38660      6.21542     -2.15362        -0.015807     -0.196891      0.102707
O	      6.40229     10.03086     -6.06313        -0.022787     -0.219634      0.212645
O	     14.89871      8.19189     -4.21363         0.020595     -0.122873      0.120655
O	     14.89642     12.24312     -8.27806         0.029259     -0.120354      0.123471
O	      4.32144      6.06914     -3.95324        -0.098393      0.108472     -0.179892
O	      4.44354     10.13704     -8.07820        -0.137694      0.122643     -0.136939
O	     12.75664      7.97734     -5.99823        -0.058702      0.134754     -0.145169
O	     12.76557     12.04272    -10.07116        -0.066581      0.128614     -0.144262
O	      4.47025      7.98447     -2.09127        -0.191049      0.135189     -0.086958
O	      4.44404     12.05453     -6.16939        -0.137196      0.131086     -0.117404
O	     12.75780      9.96935     -3.99171        -0.055291      0.139387     -0.134737
O	     12.76772     14.03618     -8.06847        -0.068344      0.140080     -0.134017
O	      6.39972      9.94600     -2.11111        -0.013388      0.194821     -0.084584
O	     14.91446      3.95286     -3.95602         0.005226      0.133862     -0.129131
O	     14.89644      8.00975     -8.02568         0.006446      0.135013     -0.132512
O	     14.91561      5.94787     -1.95563         0.005493      0.128240     -0.135275
O	     14.89688     10.00341     -6.02468         0.009822      0.134748     -0.137675
O	     17.03534      6.15482     -4.17382         0.011121     -0.136979      0.126582
O	      0.00096      6.16384     -4.18741         0.006101     -0.135638      0.134796
O	      8.41854      4.09764     -2.00504        -0.001842     -0.147431      0.141554
O	      8.55839      8.18257     -6.11023        -0.009750     -0.190578      0.168301
O	     17.03967      8.15072     -2.17185         0.010318     -0.128994      0.140236
O	     -0.00394      8.16116     -2.17948        -0.001583     -0.127002      0.134253
O	      8.42334      6.00702     -0.11422        -0.012012     -0.131775      0.178328
O	      8.57950     10.08483     -4.23034        -0.007987     -0.201822      0.183050
O	      2.08555      4.11688     -0.13620         0.085236     -0.130658      0.119228
O	      2.06671      8.19119     -4.20245         0.096956     -0.121280      0.117223
O	     10.60498      6.14650     -2.14486         0.056272     -0.143307      0.133772
O	     10.62529     10.22424     -6.25761         0.042072     -0.144640      0.143511
O	      2.11771      6.11123      1.87133         0.073484     -0.122530      0.122842
O	      2.12886     10.18771     -2.22137         0.055019     -0.117373      0.123831
O	     10.57525      8.12971     -0.15859         0.041084     -0.139019      0.147819
O	     10.61177     12.21655     -4.25188         0.072087     -0.130708      0.130871
O	     -0.00504      3.93287     -1.94532         0.025446      0.124117     -0.136369
O	     17.03866     12.02467    -10.05977         0.027827      0.126643     -0.131525
O	      8.46376      6.04334     -3.93234         0.012212      0.145279     -0.197202
O	      8.38958     10.11607     -8.06625         0.078769      0.176297     -0.147516
O	     -0.00381      5.93022      0.06057         0.014101      0.133740     -0.124713
O	     17.03512     14.02516     -8.05243         0.026520      0.132428     -0.127777
O	      8.34139      7.96108     -2.06906         0.133893      0.145192     -0.116203
O	      8.38979     12.04177     -6.14990         0.078619      0.149005     -0.166718
O	      2.20588      3.94785     -3.95617        -0.027682      0.138416     -0.120368
O	      2.16015     12.01706     -4.05076        -0.042984      0.131446     -0.132218
O	     10.63868      5.95417     -5.96790        -0.050737      0.152119     -0.134551
O	     10.66081     10.03835    -10.06286        -0.070825      0.122854     -0.116972
O	      2.18495      5.95864     -1.95137        -0.064417      0.126531     -0.136164
O	      2.12549     10.01516     -6.05325        -0.025577      0.132278     -0.138533
O	     10.69591      7.95359     -3.95547        -0.096274      0.115045     -0.126917
O	     10.68804     12.03025     -8.05757        -0.103507      0.124531     -0.130288
