# total energy = -143.59923723 eV
 
CRYSTAL
PRIMVEC
-0.046284 6.245358 6.247430 
6.248117 -0.047298 6.251221 
4.150396 4.149488 4.150408 
PRIMCOORD
18 1
Li	      8.27494      4.11528      8.36143         0.007855      0.001363     -0.008213
Li	      6.23478      2.07526      8.29237        -0.001396     -0.008448      0.006691
Li	      8.34453      6.15399     10.40143        -0.004458      0.006418      0.000229
Ti	      4.10416     10.39173     10.39765        -0.002710     -0.001106     -0.001346
Ti	      6.18641     10.37425     12.48016         0.012760     -0.030615      0.024723
Ti	      2.09132      2.05816      4.14056         0.009227      0.020455      0.016969
Ti	      4.12289      8.31371      8.32189         0.033645     -0.009027     -0.023489
Ti	      6.18598      8.31395     10.40152        -0.025170      0.026270      0.000522
Ti	      8.29124      8.25973     12.50651        -0.023756     -0.010572     -0.015464
O	      8.28046      2.06970      8.32529        -0.002327      0.005591      0.002926
O	      4.16290      2.00907      4.21112        -0.015515     -0.006978     -0.013207
O	      6.20519      2.03906      6.28286         0.002641      0.001922      0.002270
O	      8.31007      4.14346     10.37222        -0.000787     -0.004804     -0.000654
O	      4.14072      4.13869      6.24695        -0.004605      0.000780      0.010865
O	      6.26801      4.08118      8.32741        -0.009731      0.009568     -0.001635
O	      8.33941      6.18751     12.44339         0.003413      0.011636      0.013178
O	      4.13119      6.21867      8.32430         0.020929     -0.020924     -0.000075
O	      6.21156      6.20875     10.40220        -0.000015      0.008471     -0.014290
