# total energy = -138.63400338 eV
 
CRYSTAL
PRIMVEC
-0.064166 6.248223 6.160051 
6.182992 -0.093080 6.183412 
4.092773 4.134374 4.093130 
PRIMCOORD
18 1
Li	      8.18337      4.07179      8.24796        -0.005923     -0.000624      0.006242
Li	      6.20342      2.12791      8.28035        -0.015421      0.021090     -0.015402
Li	      8.15104      6.01652     10.22829         0.014403     -0.020367      0.014626
Li	      6.16671      4.07193     10.26462         0.009573      0.000707     -0.009255
Ti	      6.14851      6.21203     12.34883        -0.028157      0.096723     -0.041757
Ti	      6.08570     10.29479     12.28603         0.039063     -0.101185      0.026226
Ti	      6.13143      6.18582      8.21005        -0.014086      0.000623      0.012547
Ti	      2.03310      4.17757      6.20438        -0.023064      0.057691     -0.018334
Ti	      8.13695      8.19420     12.30835         0.014453     -0.056117      0.023529
O	      2.04536      2.01021      2.06690        -0.004558     -0.010664     -0.005931
O	      4.08820      2.09294      4.11008         0.009926      0.009592      0.006884
O	      6.08513      2.00512      6.25345         0.010148     -0.000227     -0.009240
O	      2.02967      4.09511      4.10179         0.014747     -0.037188      0.006476
O	      4.08950      4.11879      6.15888        -0.005972      0.001468      0.003819
O	      6.14649      4.14207      8.21886        -0.003357      0.038623     -0.015911
O	      8.26100      6.13944     12.26362        -0.009655     -0.000158      0.010342
O	      4.08556      6.15312      8.21687        -0.007424      0.001394     -0.005697
O	      6.12429      6.21866     10.25585         0.005305     -0.001382      0.010835
