# total energy = -69.37628502 eV
 
CRYSTAL
PRIMVEC
-0.015779 4.131375 4.125073 
6.241430 2.033298 8.259110 
4.169692 2.060975 2.051639 
PRIMCOORD
12 1
Li	      6.23786      2.12437      8.16690         0.003869      0.016506     -0.010618
Li	      8.31911      6.07875     10.40113        -0.006339     -0.015872      0.010485
Li	      6.22956      4.11678     10.30853         0.004242     -0.013233      0.001257
Li	      6.24341      4.11571      6.18010        -0.000195     -0.002263      0.000036
Li	      8.32681      4.08771      8.25901        -0.003452      0.013123      0.000523
Ti	      6.23373      6.18155      8.24289         0.000919      0.000077     -0.001160
O	      2.09025      1.95450      2.06774        -0.008745     -0.107959     -0.001329
O	      4.28314      2.05388      4.12512         0.111776      0.020259      0.008717
O	      6.24123      6.18397     10.20807        -0.001950      0.008041     -0.116639
O	      2.05896      4.11789      4.22574         0.000137     -0.006313      0.114242
O	      4.03136      4.11666      6.18312        -0.110682     -0.018596     -0.006761
O	      6.22442      4.21629      8.24057         0.010421      0.106231      0.001246
