# total energy = -132.62915174 eV
 
CRYSTAL
PRIMVEC
-0.031779 6.219029 6.252433 
6.319213 2.060685 8.318404 
4.214899 2.057869 2.078881 
PRIMCOORD
18 1
Li	      2.05340      6.33110      8.37210        -0.021414      0.003417      0.000591
Li	      0.17970      1.94877      2.13517         0.019125      0.000355      0.001386
Li	      2.10415      2.10058      4.11697         0.012510      0.008842     -0.013555
Li	      4.21520      2.18803      6.23640         0.009042      0.006244      0.002489
Li	      8.39286      6.10699     10.38936        -0.003784     -0.013208     -0.003520
Ti	     10.42648      4.21025     10.40364        -0.318903      0.117471      0.063880
Ti	      4.26409      6.21731     10.40629         0.033152      0.063730     -0.000378
Ti	     10.42808      8.22488     14.46350        -0.002638     -0.118016     -0.135100
Ti	      6.25744      6.09166      8.40803         0.074458     -0.130733      0.090420
O	      8.57713      4.14020     10.40285         0.336273      0.013414      0.005074
O	      4.26446      1.97965      4.09078        -0.017192     -0.102163     -0.076659
O	      6.34020      8.21989     12.54269         0.027187     -0.068831      0.052633
O	      1.96245      4.19795      4.24227        -0.057916      0.052048      0.037885
O	      4.07707      4.21505      6.21053        -0.066371      0.146273      0.009079
O	      6.30429      4.12728      8.34213        -0.009024      0.017980     -0.004904
O	      2.03523      6.15445      6.24949        -0.002056     -0.009707     -0.018675
O	      4.20081      6.25196      8.28978         0.037704      0.019814     -0.020624
O	      6.34247      6.16594     10.40127        -0.050151     -0.006929      0.009978
