# total energy = -78.32756021 eV
 
CRYSTAL
PRIMVEC
-0.058019 14.685172 14.687717 
2.003836 10.534558 12.536118 
2.073273 6.285849 4.193446 
PRIMCOORD
14 1
Li	      3.96258     16.82337     16.73663        -0.014353      0.007124     -0.010275
Li	      0.10081      4.19491      4.18661         0.013748     -0.006927      0.010870
Li	      2.04631     12.59010     10.61121         0.007882     -0.017928      0.007390
Li	      1.97386     19.04137     20.92417        -0.003535      0.023178     -0.002813
Li	      2.02827     16.65965     14.68729         0.001776     -0.023315      0.001637
Li	      1.95537     23.11374     25.00276        -0.007006      0.018627     -0.008905
Ti	      1.99329     12.63546     14.63178        -0.001724     -0.000236     -0.002918
O	      1.89864     16.76232     16.77443        -0.103422      0.003743     -0.005058
O	      2.10414     18.93837     18.83913         0.105982     -0.005246      0.006439
O	      1.99572     21.10557     20.98887         0.016540      0.084917      0.010627
O	      2.01524     23.08236     22.94307        -0.001872     -0.005853     -0.097866
O	      2.02878     10.51080     10.45975        -0.001087      0.004508     -0.000106
O	      1.98827     12.61844     12.66912         0.002136      0.002757      0.099101
O	      2.00901     14.59729     14.62407        -0.015066     -0.085348     -0.008124
