# total energy = -102.73368608 eV
 
CRYSTAL
PRIMVEC
0.127979 16.575100 16.509505 
2.177956 12.428449 14.461917 
2.140633 8.315943 6.180990 
PRIMCOORD
16 1
Li	      0.22727     16.57632     16.60948         0.015497     -0.003799      0.014969
Li	      0.04653      2.07058      2.08907         0.007167     -0.001996      0.014729
Li	      4.32951     24.87813     24.74833        -0.006880      0.011357     -0.004618
Li	      0.06573      6.22605      6.21058         0.006794     -0.011438      0.004472
Li	      4.34872     29.03340     28.86982        -0.007339      0.001555     -0.014799
Li	      4.29608     31.10251     30.85873        -0.015445      0.002963     -0.016053
Ti	      2.19397     24.86095     26.75798        -0.141630     -0.001342     -0.155865
Ti	      2.32954     22.81783     20.71011         0.140740      0.001822      0.156275
O	      2.31375     18.77338     18.59813         0.028991      0.092613     -0.004127
O	      2.21102     20.84571     20.54841         0.003531      0.075341     -0.031159
O	      2.24812     22.80403     22.59994         0.015232     -0.011744     -0.212228
O	      2.27512     24.87545     24.86848        -0.014747      0.009076      0.210814
O	      2.31195     26.83335     26.92010        -0.002844     -0.072200      0.033156
O	      2.08160     12.33076     12.36094        -0.029268     -0.092044      0.004494
O	      2.08027     14.51730     14.44775        -0.173521      0.006616      0.001320
O	      2.31506     16.58626     16.51081         0.173720     -0.006781     -0.001381
