# total energy = -145.09328297 eV
 
CRYSTAL
PRIMVEC
0.009135 10.360675 10.247449 
4.216306 8.264819 12.325165 
4.210090 6.215883 6.153046 
PRIMCOORD
20 1
Li	      4.25679      8.34424     12.34122        -0.002129      0.027414      0.007138
Li	      2.11064     10.47537     12.36706        -0.014085     -0.001131     -0.005976
Li	      4.21367      8.16082      8.14681         0.014481      0.001235      0.006298
Li	      6.28374     18.55670     20.49764         0.001759     -0.028205     -0.005830
Li	      6.33884     20.60992     22.56172        -0.016284     -0.015993      0.008008
Li	      4.21088     16.65149     20.52472         0.016607      0.017757     -0.006865
Ti	      4.22657     10.30526     10.21258        -0.022145     -0.107023     -0.013523
Ti	      0.04134      6.24199      6.20900        -0.016353      0.033067      0.070884
Ti	      6.28296     12.39410     14.30502         0.019966     -0.033705     -0.077826
Ti	      6.30776     14.54640     16.45397         0.019457      0.111970      0.018689
O	      6.40591     20.80608     24.63273         0.028342      0.111210      0.009166
O	      4.20715     12.39141     14.37879         0.009196     -0.001237      0.020119
O	      6.27122     12.50330     16.39939        -0.061525      0.046942     -0.004217
O	      4.26928     14.39754     16.43958         0.063108     -0.046297      0.004579
O	      6.33348     14.50952     18.45998        -0.010817      0.000654     -0.019058
O	      4.14418     16.45567     18.45368        -0.029801     -0.112073     -0.005690
O	      2.09055      8.15941      8.29642        -0.012851     -0.056560      0.066924
O	      4.13514      8.37190     10.27459        -0.051101      0.131089      0.005076
O	      2.18905     10.26407     10.23923         0.051439     -0.135642     -0.010236
O	      4.23377     10.47664     12.21732         0.012735      0.056528     -0.067660
