# total energy = -120.78364591 eV
 
CRYSTAL
PRIMVEC
0.072728 10.353034 10.397090 
4.248591 8.281450 12.514845 
4.202253 6.216433 6.269303 
PRIMCOORD
20 1
Li	      4.29298     16.59102     16.73226         0.001729      0.002813      0.004815
Li	      4.25569     10.47005     14.57693        -0.006640      0.014577      0.001505
Li	      6.38137     18.66148     20.96524         0.003321      0.001536      0.013448
Li	      4.32555     10.25478     10.45200         0.019431     -0.015025     -0.001406
Li	      2.02717      4.24119      6.23079        -0.019962      0.015098      0.000859
Li	      4.29266     14.46891     18.62955        -0.003273     -0.001111     -0.013761
Li	      6.34570     12.30747     14.62059         0.006852     -0.013960     -0.001175
Li	      2.13236      8.25805     10.34751        -0.001593     -0.002829     -0.004773
Ti	      2.26055     10.35215     12.44192         0.162818      0.011200     -0.101668
Ti	      4.16473     14.49678     14.63785        -0.162914     -0.011183      0.101208
O	      2.14156     12.30781     12.46619         0.015992     -0.115672     -0.000673
O	      4.28414     12.54125     14.61398        -0.017467      0.114639     -0.000482
O	      2.20289      4.13367      4.17406         0.216882     -0.001513      0.005931
O	      4.28204     14.51633     16.55033        -0.021062     -0.012338     -0.171821
O	      6.35748     14.61242     18.78975         0.010623      0.100524     -0.006949
O	      4.37898     16.53265     18.84985         0.032976      0.010491      0.072153
O	      6.29503     16.59774     20.74469        -0.033330     -0.009829     -0.070859
O	      4.24378      8.16498     10.40765        -0.010242     -0.100436      0.008100
O	      2.14345     10.33293     10.52951         0.020330      0.010557      0.170045
O	      4.14960     10.36231     12.50856        -0.214471      0.002462     -0.004497
