# total energy = -30.09619584 eV
 
CRYSTAL
PRIMVEC
0.001423 2.062902 2.063168 
2.063639 0.001539 2.063053 
4.265127 4.263536 -0.134435 
PRIMCOORD
4 1
Li	      2.06915      2.06668      4.12053         0.000141     -0.000847      0.002710
Ti	      4.20269      4.19784      4.05486        -0.001691      0.003042     -0.003038
O	      2.13372      2.12891      1.99150         0.059180      0.061644     -0.024990
O	      4.20597      4.20260      1.99181        -0.057630     -0.063839      0.025318
