# total energy = -30.07993314 eV
 
CRYSTAL
PRIMVEC
0.001739 2.112060 2.112114 
3.996433 0.026574 4.200885 
3.996388 2.113633 2.113775 
PRIMCOORD
4 1
Li	      0.00387      2.10775      2.10929        -0.002065     -0.006861      0.011091
Ti	      5.99810      4.23185      6.32802         0.002957      0.004037     -0.004896
O	      2.00102      2.10582      2.11469         0.000121      0.000926     -0.003048
O	      3.99931      2.11908      4.21511        -0.001014      0.001898     -0.003147
