# total energy = -47.85930973 eV
 
CRYSTAL
PRIMVEC
0.003732 2.072146 2.073769 
6.197452 -0.071601 6.301670 
4.138352 2.080818 2.070197 
PRIMCOORD
6 1
Li	      4.13192     -0.04364      4.20389        -0.001096     -0.000021     -0.000257
Ti	      4.14227      2.07457      2.08699        -0.002397     -0.010027     -0.006788
Ti	      2.06214     -0.00894      2.08962         0.006721      0.013365      0.003121
O	      8.27229      2.05179      8.33446         0.002006     -0.008618      0.001164
O	      4.13351      2.01456      4.21730        -0.003905      0.007382      0.000685
O	      6.20294      2.03333      6.27584        -0.001330     -0.002081      0.002076
