# total energy = -47.49798722 eV
 
CRYSTAL
PRIMVEC
-0.010262 2.072696 2.063406 
6.145844 -0.124060 6.366060 
6.159997 2.027677 4.203455 
PRIMCOORD
6 1
Li	     10.24803      4.00962     10.50848        -0.013038      0.012010      0.010687
Ti	      6.10022      2.02294      4.20707        -0.040827      0.003237      0.000476
Ti	      2.09630      2.03107      4.18737         0.044403     -0.007680     -0.004180
O	      8.26172      1.94729      8.44050         0.046535     -0.007925      0.003761
O	      4.09799      2.02845      4.19827         0.007318     -0.012352     -0.007688
O	      6.08068      1.98232      6.31995        -0.044392      0.012710     -0.003056
