# total energy = -91.00463997 eV
 
CRYSTAL
PRIMVEC
4.159161 0.000241 0.000376 
-0.000548 0.000090 -4.030945 
2.079605 8.360981 -2.015205 
PRIMCOORD
16 1
Li	      4.15897      4.23630     -4.02942         0.000393     -0.028545      0.002276
Li	      2.07909      0.01375     -2.01396         0.001477      0.032825     -0.003168
Li	      4.15886      2.24422     -2.01395         0.000852      0.047606      0.000019
Li	      2.07976      4.08735     -2.01381         0.000036     -0.015991     -0.001839
Mn	      4.15860      0.02612     -4.02929        -0.002095      0.056137     -0.000298
Mn	      2.07904      2.18370     -4.02966         0.000113      0.134807     -0.000305
Ni	      2.07892      6.16620     -4.02893         0.003228     -0.145346     -0.006933
Ni	      4.15883      6.19561     -2.01336         0.004175      0.109977     -0.002076
O	      4.15906      4.27796     -2.01376         0.001562     -0.127619      0.002373
O	      2.07928      6.43165     -2.01393         0.000364      0.069487      0.003190
O	      4.15848      1.95199     -4.02959        -0.002256     -0.060537      0.002859
O	      2.07931      4.05969     -4.02940        -0.001728     -0.170579     -0.000957
O	      2.07881      0.10302     -4.02944         0.001299      0.008863     -0.002760
O	      4.15868      6.23372     -4.02872         0.001989      0.012432     -0.002098
O	      2.07925      8.24418     -4.02939        -0.004854      0.086468      0.002306
O	      2.07919      2.09656     -2.01426        -0.004555     -0.009984      0.007410
