# total energy = -65.24814544 eV
 
CRYSTAL
PRIMVEC
-0.011268 4.184750 4.194774 
4.185260 -0.007886 4.194452 
4.208897 4.212034 4.167724 
PRIMCOORD
8 1
Li	      4.23953      2.14512      6.22619        -0.018505     -0.014793      0.029703
Ti	      8.23220      4.27637      8.28993         0.079721     -0.023127      0.006085
Ti	      6.36894      4.27726      6.42343        -0.010643     -0.011077     -0.068156
Ti	      6.36664      6.14062      8.29027        -0.023191      0.079291      0.004685
O	      6.29457      6.31747     10.43713        -0.028379     -0.005739     -0.004587
O	      4.22061      6.32344      8.35779        -0.002633     -0.002625      0.028557
O	      1.96707      4.06847      4.30739         0.008685      0.009928      0.007454
O	      4.22420      4.21284      6.24241        -0.005056     -0.031856     -0.003740
