# total energy = -65.34791300 eV
 
CRYSTAL
PRIMVEC
0.028065 8.319854 8.110424 
2.109937 2.018404 4.121734 
2.101027 6.292021 4.010828 
PRIMCOORD
8 1
Li	      2.12015      6.18690      8.16676         0.002100     -0.003252     -0.006777
Ti	      2.09055      6.32503      4.05831         0.010280     -0.025194     -0.035538
Ti	      2.07539      8.21533      6.00519        -0.007128      0.031153      0.010643
Ti	      2.16441      8.39312     10.18315         0.007983     -0.020873      0.015505
O	      2.10079     10.50629     10.07740         0.000736      0.039191     -0.011864
O	      2.13404     12.49297     12.16587        -0.012287     -0.003719      0.023180
O	      2.13781      6.10945      6.19896         0.001278     -0.030601     -0.008898
O	      2.11163      8.30808      8.10350        -0.002962      0.013294      0.013749
