# total energy = -65.32263639 eV
 
CRYSTAL
PRIMVEC
-0.000045 2.073811 2.073235 
8.616906 -0.054489 8.347358 
4.307679 2.073299 2.073745 
PRIMCOORD
8 1
Li	      8.53768      2.04702      6.24736        -0.005842     -0.000442      0.002518
Ti	      8.85566      2.02119     10.42182        -0.061418      0.002915     -0.003987
Ti	      6.34018      2.08888      4.13372         0.019091      0.013938     -0.015273
Ti	     10.64808      2.00615      8.36283         0.021190     -0.016068      0.014742
O	     11.02675      2.02038     10.42075         0.037023     -0.000395      0.000392
O	      4.24362      2.05575      4.16666        -0.009727     -0.014517      0.019382
O	      6.39390      2.04753      6.24849         0.012369     -0.000388     -0.003878
O	      8.55165      2.03947      8.32919        -0.012686      0.014957     -0.013894
