# total energy = -65.34568151 eV
 
CRYSTAL
PRIMVEC
0.130103 4.287681 4.183871 
4.237670 2.273057 6.280697 
4.226203 2.266631 2.102013 
PRIMCOORD
8 1
Li	      2.14682      2.21172      4.18486         0.029229      0.005324      0.001511
Ti	      4.23435      2.42264      6.26452        -0.012309      0.003433      0.005851
Ti	      6.43112      6.63134      8.38097        -0.014049     -0.018388      0.000537
Ti	      4.30416      4.25788      4.20605         0.002958      0.011864     -0.003300
O	      6.38299      4.48681      8.37656         0.003020     -0.005903     -0.004693
O	      4.26366      6.43430      8.36086         0.014657     -0.034503      0.022782
O	      6.45160      6.62393     10.47054        -0.009449      0.002953     -0.012573
O	      4.38452      4.53721      6.29281        -0.014058      0.035221     -0.010115
