# total energy = -65.43621832 eV
 
CRYSTAL
PRIMVEC
0.000231 2.104109 2.103949 
4.218846 -0.008860 4.217229 
4.219071 4.217715 -0.009183 
PRIMCOORD
8 1
Li	      0.02836      2.10394      2.10030        -0.006247     -0.000837      0.000605
Ti	      6.22346      2.16492      4.14397         0.026935      0.061695     -0.062062
Ti	      6.22357      4.14786      2.16088         0.026961     -0.061149      0.061775
Ti	      4.37837      4.20808      4.20447        -0.005593      0.000641     -0.000579
O	      2.08102      2.10377      2.10017         0.014430      0.002053      0.002339
O	      4.14296      4.19745      2.11132        -0.017680      0.011606     -0.014182
O	      4.14261      2.11497      4.19376        -0.016494     -0.012872      0.011856
O	      6.52566      4.20861      4.20439        -0.022313     -0.001138      0.000249
