# total energy = -42.23913198 eV
 
CRYSTAL
PRIMVEC
-0.004111 2.080678 2.080029 
4.514798 -1.102976 7.354587 
4.514254 1.716099 4.534180 
PRIMCOORD
6 1
Li	      4.48381      2.24164      5.04702         0.004008      0.002273      0.003320
Li	      3.03833     -0.21050      5.41499         0.003281      0.005141      0.004574
Ti	      1.50585      0.12869      2.93316        -0.007208     -0.012435     -0.022475
O	      6.02030      0.46965      8.91492         0.001108     -0.021899     -0.017627
O	      2.84742      1.21226      4.01848        -0.127610      0.018235      0.020563
O	      4.67858      0.84586      6.47109         0.126421      0.008685      0.011645
