# total energy = -40.38415347 eV
 
CRYSTAL
PRIMVEC
0.013688 2.137624 2.100424 
2.137796 0.013972 2.100120 
6.789313 6.787280 -0.332981 
PRIMCOORD
6 1
Li	      6.48124      6.48144     -0.06488         0.006595      0.006823      0.015994
Li	      6.98288      6.98265      3.71414        -0.007313     -0.006584     -0.016310
Ti	      4.39648      2.27660      1.98887        -0.000531      0.000252      0.000088
O	      2.39694      2.40101      1.88283         0.083225      0.085751     -0.079093
O	      4.27098      4.27595      2.09461        -0.082411     -0.086360      0.078931
O	      6.73191      6.73203      1.82460         0.000434      0.000118      0.000389
