# total energy = -60.13477326 eV
 
CRYSTAL
PRIMVEC
-0.001425 2.082334 2.082385 
8.211688 -0.143769 8.467737 
4.106203 2.081457 2.080453 
PRIMCOORD
8 1
Li	      6.15640      3.98400      6.41956        -0.001431      0.012083     -0.013996
Li	      4.10289      2.14897      6.17403        -0.001744     -0.012190      0.013558
Ti	      4.10353      4.15730      4.16304         0.000239     -0.085171      0.086324
Ti	      6.15668     -0.10634      6.34877        -0.000341      0.085965     -0.088334
O	     10.26274      1.94357     10.54217        -0.000615      0.018903     -0.018821
O	      4.10347      2.14509      4.09586         0.003971      0.048270     -0.047696
O	      6.15657      1.90594      6.41551         0.001486     -0.049258      0.051784
O	      8.20920      1.96365      8.43748        -0.001565     -0.018602      0.017181
