# total energy = -60.39675654 eV
 
CRYSTAL
PRIMVEC
-0.014439 8.162106 8.479132 
2.033023 2.040783 4.235763 
2.033688 6.121986 4.235571 
PRIMCOORD
8 1
Li	      4.06116     10.20368     10.59050         0.003637      0.006016      0.015729
Li	      2.02700     10.20226      8.47685         0.006597      0.010145     -0.013563
Ti	      2.02246     14.28526     12.72060         0.000005     -0.004564      0.007519
Ti	      2.01993      8.16446     10.59115        -0.007685     -0.004251     -0.008296
O	      2.02238     10.20468     10.60241        -0.008094     -0.001291      0.024620
O	      2.01992     12.24479     12.70936         0.003924     -0.000572     -0.023948
O	      2.02813      6.12344      6.35093        -0.000839     -0.002802     -0.020613
O	      2.02832      8.16419      8.48176         0.002454     -0.002680      0.018552
