# total energy = -51.24577600 eV
 
CRYSTAL
PRIMVEC
-0.002424 2.078212 2.080098 
4.110296 -0.052369 4.207856 
6.132489 4.145981 2.083446 
PRIMCOORD
8 1
Li	     10.15226      4.09615      6.28177        -0.015966     -0.014474      0.010048
Li	      2.15121      2.04477      4.18753         0.014244      0.014482     -0.011915
Li	      4.09450      4.13540      4.17002         0.000130      0.000106      0.000589
Ti	      6.14949      4.10908      6.27354        -0.000236     -0.000630      0.001846
O	      2.04510      2.16861      1.97967         0.000363      0.090762     -0.087131
O	      8.09645      4.11258      6.27575        -0.100357     -0.014729     -0.013472
O	      4.20598      2.02814      4.19243         0.100435      0.014650      0.013643
O	      6.14705      4.02446      4.28046         0.001387     -0.090168      0.086391
