# total energy = -51.19595859 eV
 
CRYSTAL
PRIMVEC
-0.001158 2.081679 2.080245 
4.139486 -0.005955 4.164211 
4.139191 4.166688 -0.005691 
PRIMCOORD
8 1
Li	      4.13679     -0.00486      4.16183         0.003091     -0.001892      0.002195
Li	      6.20584      6.24202      4.15724         0.001695      0.005251     -0.003222
Li	      4.13682      4.15801      4.16076        -0.000695      0.001933      0.001345
Ti	      6.20414      2.07472      4.16071        -0.012983      0.000594      0.003251
O	      2.06901      2.16560      1.99518         0.000675      0.091178     -0.091970
O	      4.01623      4.16323      2.07781        -0.109830     -0.001557     -0.001814
O	      4.26201      2.07645      4.16156         0.119599     -0.002209     -0.000927
O	      6.20908      4.07375      4.24397        -0.001553     -0.093299      0.091142
