# total energy = -51.07176970 eV
 
CRYSTAL
PRIMVEC
0.108743 4.854882 3.831929 
4.378290 2.429327 5.855877 
4.293153 2.428895 1.995459 
PRIMCOORD
8 1
Li	      4.23299      7.04486      5.85050        -0.006530     -0.005382      0.008497
Li	      0.21444      2.26052      1.91064         0.009473     -0.004232     -0.003460
Li	      6.23875      4.61875      5.87603        -0.027112     -0.002736     -0.000506
Ti	      6.64731      6.98455      7.80528         0.042774     -0.282122     -0.017727
O	      6.58812      5.16613      7.80129         0.013769      0.395986      0.003497
O	      4.71020      2.70474      3.86941         0.157148     -0.023579     -0.002963
O	      6.60849      7.45681      9.74565         0.003536     -0.031944      0.022213
O	      4.17857      5.05345      5.85034        -0.193056     -0.045990     -0.009552
