# total energy = -50.97451345 eV
 
CRYSTAL
PRIMVEC
-0.001284 2.069188 2.072189 
8.101574 -0.148628 8.433711 
4.045791 2.063665 2.075526 
PRIMCOORD
8 1
Li	      8.10803      1.97102     10.46306         0.004231      0.023307     -0.016586
Li	      8.09315      4.00883      8.41007        -0.006170     -0.022616      0.014127
Li	     10.10372      1.96659      8.41712         0.001142     -0.005247     -0.006261
Ti	      2.11953      2.02673      4.17613         0.115895      0.002397     -0.003912
O	      2.00426      1.93475      2.20222         0.033933     -0.105889      0.114854
O	      4.00556      2.02696      4.18118        -0.173088     -0.006711     -0.006812
O	      6.04763      2.11719      6.15625         0.018960      0.118464     -0.094647
O	      8.08078      1.95688      8.40187         0.005097     -0.003705     -0.000763
