# total energy = -50.89578376 eV
 
CRYSTAL
PRIMVEC
0.220180 3.519964 5.965730 
4.191030 -0.007326 6.151701 
4.191006 3.519613 6.159943 
PRIMCOORD
8 1
Li	      4.29372      3.50890     11.80519        -0.006119      0.001656     -0.003747
Li	      4.41482      1.75751      8.60249         0.004354     -0.001207     -0.001478
Li	      6.36185      5.27124     12.59559        -0.007271      0.001890     -0.022171
Ti	      6.38578      3.51741      9.76088         0.007087     -0.005864      0.434493
O	      6.59477      5.27607     14.86795         0.015021      0.000427      0.089035
O	      4.11627      1.75029      6.70319         0.007335      0.003361      0.015123
O	      6.28061      3.51059     11.55711         0.019194      0.001781     -0.511062
O	      4.36733      3.51845      9.53358        -0.039602     -0.002043     -0.000194
