# total energy = -50.95374731 eV
 
CRYSTAL
PRIMVEC
-0.015213 2.075810 2.074007 
6.082746 -1.478931 9.818458 
6.083449 1.344473 6.992524 
PRIMCOORD
8 1
Li	      5.96134      2.90486      8.54985         0.065154     -0.007170     -0.006660
Li	      3.13764      0.81085      6.45614        -0.066531      0.004573      0.005974
Li	     10.62845      1.76788     15.88567         0.003038      0.008733      0.007761
Ti	      7.59022      2.53876     11.00849         0.011841      0.002053      0.003871
O	      7.59074      1.12422     12.41787        -0.000410      0.002238      0.000724
O	      2.83046      2.23362      5.05412        -0.074611     -0.007151     -0.008329
O	      4.54959      1.85636      7.50143        -0.001660      0.001270      0.001290
O	      6.26993      1.49346      9.96307         0.063179     -0.004545     -0.004632
