# total energy = -49.25140533 eV
 
CRYSTAL
PRIMVEC
-0.001612 2.098819 2.108935 
2.099303 -0.001401 2.108730 
8.973836 8.970923 -0.587575 
PRIMCOORD
8 1
Li	      8.65570      8.64848     -0.25961        -0.051195     -0.049426      0.038317
Li	      6.92396      6.92170      3.56558         0.039944      0.037901     -0.029934
Li	      8.83917      8.83474      3.76031        -0.005921     -0.006009      0.006164
Ti	      2.22829      2.23757     -0.13171         0.006126      0.005017     -0.005546
O	      2.33595      2.34446      1.86371         0.120099      0.121374     -0.135590
O	      4.21677      4.22577      2.09229        -0.114179     -0.112286      0.130516
O	      6.66777      6.66577      1.72358        -0.010864     -0.012207     -0.002042
O	      8.90517      8.89812      1.58852         0.015991      0.015636     -0.001884
