# total energy = -84.71849163 eV
 
CRYSTAL
PRIMVEC
0.043389 12.614724 12.504192 
2.105742 6.317079 8.332633 
2.093285 4.205197 2.088662 
PRIMCOORD
12 1
Li	      4.20520     12.62330     12.50486        -0.000045      0.001179      0.000771
Li	      4.17893     16.85408     16.70660        -0.008795     -0.017773      0.000220
Li	      4.22681     18.93068     18.75709         0.000458      0.000905      0.000637
Li	      0.07578     10.48462     10.38629         0.008496      0.018350     -0.000498
Ti	      4.18938     10.50895     10.40197         0.020807     -0.017277     -0.027672
Ti	      2.11510      8.42052      6.27530        -0.018266      0.021315      0.030901
O	      2.23732     14.83527     14.55483         0.093814      0.105174      0.010741
O	      2.04300     16.87047     16.57882        -0.116606     -0.004931     -0.086953
O	      2.07010      6.42899      6.35768         0.004645      0.083170      0.112129
O	      2.14111      8.29565      8.23105        -0.005212     -0.088039     -0.114701
O	      2.21161     10.46861     10.51398         0.115056      0.008370      0.088960
O	      2.01728     12.50410     12.53821        -0.094353     -0.110443     -0.014535
