# total energy = -137.96541250 eV
 
CRYSTAL
PRIMVEC
0.011533 6.221280 6.229653 
6.366404 -0.008891 6.216437 
4.251172 6.217296 6.222767 
PRIMCOORD
18 1
Li	      2.15496      2.19614      4.28058         0.012935      0.004665      0.014268
Li	      4.28037      2.19281      6.08981         0.003003      0.008172     -0.017945
Li	      4.29759     10.23716     10.50693        -0.010864     -0.009601      0.018118
Li	      2.17167      4.01669      6.09333        -0.019208     -0.006789     -0.016786
Ti	      0.10326      6.21929      6.30956        -0.060817      0.006743     -0.209205
Ti	      6.14085      6.21288      8.29541         0.252310      0.009568      0.005574
Ti	      4.34641      6.21357     10.29475        -0.056029      0.001576      0.188809
Ti	      0.08713      2.01481      2.07637        -0.027667     -0.055129      0.000529
Ti	      4.33952      4.19985      8.29673        -0.044766      0.025482      0.007696
O	      8.51732      8.28863     14.51910        -0.020728      0.011777     -0.001746
O	      4.24139      8.23249     10.31655         0.012590     -0.057733     -0.081898
O	      6.36429      8.22994     12.50549         0.006381     -0.060657      0.083316
O	      8.47914      4.19092     10.30755         0.007133      0.068412     -0.078292
O	      4.23556      4.19720      6.27993         0.001652      0.059875      0.080354
O	      6.38867      4.13272      8.29467        -0.012047     -0.010982     -0.004804
O	      8.50818      6.20896     12.42537         0.004051     -0.000867      0.095893
O	      4.03182      6.21498      8.29816        -0.039145      0.015485      0.016364
O	      6.38690      6.21355     10.38844        -0.008782     -0.009997     -0.100245
