# total energy = -150.83775402 eV
 
CRYSTAL
PRIMVEC
0.028000 10.339835 10.429687 
4.239423 6.207341 10.440818 
4.222230 4.138742 4.182729 
PRIMCOORD
20 1
Li	      6.41181     14.48685     16.76300         0.003317     -0.009478     -0.002689
Li	      4.27557      8.34432     12.55739         0.000862      0.015219      0.010750
Li	      4.18696      8.11540      8.24290         0.001779      0.010710     -0.016036
Li	      6.27077      8.33695     10.59902        -0.009351      0.003532      0.004178
Li	      2.09402      6.21126      8.20889         0.008396     -0.004778     -0.007025
Ti	      4.24205     14.45829     14.66304         0.012770     -0.015604      0.033320
Ti	      2.26410     12.48063     14.56941         0.050064      0.074287     -0.067545
Ti	      4.23545     12.42255     16.63916         0.032528     -0.004963     -0.015486
Ti	      4.20279     12.37723     12.52267        -0.079311     -0.064755      0.027569
Ti	      6.33502     12.34932     14.67774        -0.073879     -0.071324      0.087606
O	      2.21725     12.44999     12.56258         0.089281     -0.001906      0.070377
O	      4.29542     12.28763     14.56225         0.007181     -0.005689     -0.025711
O	      6.38211     10.35137     14.61443         0.023482      0.010028     -0.001033
O	      4.23965     14.47549     16.72243         0.003272     -0.035899      0.016431
O	      6.26974     12.42250     16.64364        -0.049861     -0.018174     -0.106438
O	      4.34151      6.17308      8.42352         0.028677     -0.032216      0.024640
O	      6.34776     14.57440     18.83649        -0.011561      0.025361      0.023465
O	      4.16686      8.28558     10.45187        -0.030234      0.027351      0.000795
O	      2.09715     10.32579     10.44261        -0.004057     -0.010505     -0.009933
O	      4.24650     10.41737     12.43538        -0.003356      0.108803     -0.047236
