# total energy = -91.83105311 eV
 
CRYSTAL
PRIMVEC
0.000009 2.090328 2.090781 
4.110112 -4.211451 4.212407 
4.110067 4.211486 -4.212320 
PRIMCOORD
16 1
Li	      2.05525      2.09839     -0.01065         0.000502     -0.000606      0.001236
Li	      4.11024     -0.10292      0.10340         0.000340     -0.022998      0.021471
Li	      6.16553      2.09658     -0.01036         0.000360      0.002099      0.000586
Li	      4.10990      0.08920      4.09114         0.000461      0.022821     -0.023968
Mn	      4.11064     -2.07128      6.25148         0.000462      0.072678     -0.072072
Mn	      4.11070      4.14611      0.03205        -0.000497     -0.070015      0.072040
Ni	      2.14069     -0.00764      2.09668         0.027105      0.000649      0.000205
Ni	      6.08038     -0.00768      2.09701        -0.027791      0.002545     -0.001561
O	      6.02980      4.24420     -0.06569        -0.070002     -0.106298      0.104715
O	      6.30126      2.04248      2.13764         0.073826      0.100410     -0.102494
O	      4.11056     -2.25282      4.34240        -0.000125     -0.024536      0.026811
O	      2.19141      4.24439     -0.06553         0.071038     -0.108016      0.104794
O	      4.11065      4.20370     -2.11538         0.000063      0.000912     -0.000958
O	      1.92003      2.04222      2.13745        -0.075279      0.101919     -0.103576
O	      4.11066      2.23716     -0.14989        -0.000830      0.029251     -0.027906
O	      4.11051     -0.00689      2.09709         0.000365     -0.000815      0.000678
