# total energy = -102.65208374 eV
 
CRYSTAL
PRIMVEC
0.043414 4.097476 4.102705 
8.535154 2.093469 10.295279 
6.417956 4.139891 6.174427 
PRIMCOORD
16 1
Li	      8.56344      6.21166     14.27035        -0.003928      0.014060     -0.020810
Li	      8.48093      8.24498     12.36408        -0.012788     -0.014138      0.003969
Li	      6.49330      4.12657     10.31590         0.030093      0.004878     -0.012216
Li	     14.91163      8.28842     18.49364        -0.029800     -0.003384      0.012379
Li	      4.38839      2.07709      6.15002         0.012938      0.014128     -0.002729
Li	     12.84135      6.20370     14.53885         0.004708     -0.014244      0.020868
Ti	      4.33686      4.07795      8.17455         0.098521     -0.028326     -0.198810
Ti	      8.53302      6.24416     10.33973        -0.098875      0.027736      0.198813
O	     10.68076      4.15894     12.35338         0.000439     -0.000008      0.000063
O	      4.19063      6.08123      8.22677        -0.062859     -0.075586     -0.000712
O	      6.63296      6.17991     10.21575         0.150882      0.013199      0.021163
O	      8.50022      6.22600     12.21259        -0.000249      0.011378     -0.248590
O	     10.70256      6.20767     14.40473        -0.000217     -0.000036     -0.000063
O	      4.36962      4.09604      6.30170         0.000407     -0.012562      0.247607
O	      6.23702      4.14183      8.29840        -0.152169     -0.012155     -0.020892
O	      8.67933      4.24069     10.28755         0.062896      0.075062     -0.000042
