# total energy = -87.08320300 eV
 
CRYSTAL
PRIMVEC
-0.004481 4.227652 4.223156 
8.081528 2.137288 10.522519 
4.033912 4.220021 4.226558 
PRIMCOORD
16 1
Li	      4.03118      4.26891      4.37352        -0.003918     -0.002349     -0.000498
Li	      6.05510      8.30975     10.69598         0.004425     -0.006039      0.013926
Li	      4.03964      4.32035      8.35552         0.003744      0.012335     -0.010847
Li	      4.02928      6.18883      6.29213        -0.001306     -0.012638      0.005176
Li	      2.01938      2.23274      4.10555         0.000286      0.014716     -0.015299
Li	      4.04465      2.20045      6.24649         0.000438      0.014169      0.000988
Li	      6.05801      2.14987      8.40899        -0.005008      0.004930     -0.003253
Ti	      6.06000      4.37854     10.40271         0.007751      0.136735     -0.128451
O	     10.09143      8.37063     16.65307        -0.000977      0.019793     -0.022239
O	      4.03422      6.47279      8.32509         0.006089     -0.026803     -0.007048
O	      6.05913      6.25698     10.59042        -0.003163     -0.194986     -0.027969
O	      8.07001      6.03868     12.95267        -0.009106      0.015436      0.024957
O	     10.09355      6.57344     14.83734        -0.003033      0.035160     -0.013791
O	      4.04278      4.20035      6.35802         0.007935      0.007041     -0.005265
O	      6.05859      4.20323      8.52640         0.002114      0.002271      0.207490
O	      8.07655      4.32823     10.45929        -0.006271     -0.019772     -0.017876
