# total energy = -135.07927822 eV
 
CRYSTAL
PRIMVEC
-0.007449 10.401966 10.230541 
4.099559 6.210427 10.251620 
4.103070 4.147586 4.092581 
PRIMCOORD
20 1
Li	      6.15811     14.52451     16.40714         0.004765     -0.013170      0.009905
Li	      0.04701      2.14682      2.12634         0.006343      0.020035      0.008868
Li	      2.03254     12.47431     14.31266        -0.016481      0.010707     -0.010424
Li	      8.16922     14.45019     18.36119        -0.016959     -0.012506     -0.009894
Li	      6.15900      8.29771     10.25423        -0.006639      0.020002     -0.008274
Li	      2.04778      6.22915      8.19460        -0.003313     -0.001931      0.002504
Li	      6.13720     12.45170     14.32579         0.010533     -0.020119      0.009407
Ti	      4.03931      6.32988     10.25588        -0.330507      0.116486     -0.065651
Ti	      4.15181     10.27173     10.23459         0.331908     -0.112257      0.070121
Ti	      4.09439     12.47154     12.28154         0.004470     -0.009766     -0.000452
O	      2.18169     12.48108     12.28667         0.134036      0.001089     -0.006315
O	      4.09028     12.55626     14.33738         0.005232      0.020195      0.000298
O	      6.31161     10.39741     14.34749         0.354310      0.011843      0.004007
O	      4.09476     14.44653     16.37944        -0.005528     -0.015731      0.000460
O	      1.87819      6.20388      6.13850        -0.331641     -0.014751     -0.000391
O	      4.12059      6.13854      8.30116        -0.016582     -0.078775      0.107233
O	      6.00351     14.52050     18.43069        -0.132061      0.004952      0.007617
O	      4.09746      8.29978     10.24397        -0.005699     -0.000581      0.002589
O	      2.04310     10.39595     10.23324         0.003347     -0.001470      0.002908
O	      4.07520     10.46224     12.18793         0.010466      0.075749     -0.124516
