# total energy = -77.68787717 eV
 
CRYSTAL
PRIMVEC
-0.000822 2.100874 2.094523 
10.351892 -0.120870 10.594270 
6.194784 2.064100 4.227467 
PRIMCOORD
10 1
Li	      0.11149      2.07136      2.11208        -0.002606      0.019838     -0.006608
Li	     12.28115      2.02765     10.57046         0.010587     -0.019672      0.003437
Ti	      8.18291      1.98663      6.39244        -0.044423     -0.041936      0.042090
Ti	      4.14010      2.06901      6.31069         0.001905     -0.007982      0.014205
Ti	      8.34535      2.08311     10.51900         0.027016      0.042129     -0.046471
O	     12.47434      1.85504     12.78954         0.020941     -0.013610      0.020305
O	      4.17533      2.12006      4.18410         0.037938      0.013896     -0.019042
O	      6.20539      2.05314      6.33154         0.038043     -0.001493     -0.007476
O	      8.13666      2.01828      8.47256        -0.038688     -0.013642      0.009220
O	     10.37436      2.03848     10.52975        -0.050713      0.022472     -0.009660
