# total energy = -77.58777820 eV
 
CRYSTAL
PRIMVEC
0.001879 2.105539 2.106490 
2.101500 0.001883 2.106479 
10.605005 10.625097 -0.088039 
PRIMCOORD
10 1
Li	      2.10462      2.11638      4.20400         0.007980      0.003757     -0.000144
Li	      6.35620      6.36818     -0.04281        -0.005141     -0.001470     -0.005047
Ti	      4.24717      4.25861      4.17390         0.031060      0.026235     -0.088767
Ti	      4.21840      4.22398     -0.01357        -0.038076     -0.034180      0.091270
Ti	     10.58145      8.50338      2.03550         0.004184      0.001018     -0.002105
O	      2.16694      2.17554      2.03565         0.001580      0.012147      0.021387
O	      4.23261      4.24092      2.08024        -0.000078      0.002891      0.000445
O	      6.29847      6.30702      2.12445        -0.000702     -0.009185     -0.020560
O	      8.49803      8.52493      2.00813         0.046100      0.024327      0.002108
O	     10.56584     10.58552      2.06251        -0.046907     -0.025540      0.001415
