# total energy = -77.56672814 eV
 
CRYSTAL
PRIMVEC
0.001850 2.079780 2.088899 
10.140212 -0.162237 10.566716 
10.142754 1.981280 8.431466 
PRIMCOORD
10 1
Li	      4.11880      1.81390      6.11081        -0.025674     -0.009851     -0.010520
Li	     18.20588      3.71896     18.76036         0.019593      0.003019      0.000407
Ti	     10.08451      3.84595     10.30389        -0.026040      0.011669      0.007176
Ti	      2.09872      1.84416      3.99440         0.027838     -0.007166     -0.005533
Ti	      6.09064      1.77494      8.21807         0.000428      0.000467      0.002126
O	     12.26253      1.71315     12.44821         0.045104     -0.002175      0.002236
O	     14.25663      1.68067     14.56240         0.054354     -0.006490     -0.007123
O	      6.09112      1.80607      6.10540         0.002456      0.005382      0.005612
O	      8.06602      1.77115      8.21693        -0.060686     -0.006363     -0.003962
O	     10.05872      1.73412     10.32698        -0.037373      0.011508      0.009582
