# total energy = -78.11503774 eV
 
CRYSTAL
PRIMVEC
-0.128645 10.351625 10.472296 
2.019245 2.066369 4.168674 
2.020227 6.214976 4.160001 
PRIMCOORD
10 1
Li	      1.90804     12.42537     10.49716         0.000292      0.005369      0.013412
Li	      1.95299     10.34692     12.48483         0.005883     -0.004334     -0.017273
Ti	      1.87827     12.42240     14.61364         0.013876     -0.017077     -0.016581
Ti	      2.00020      8.28579      6.26216         0.001067     -0.013212     -0.012975
Ti	      1.98331     10.34929      8.36689        -0.009850      0.023607      0.030093
O	      1.90443     12.41925     12.55163        -0.004349      0.002695      0.011478
O	      1.93531     14.49602     14.59311        -0.000157     -0.009888     -0.004095
O	      1.99796      6.21055      6.25497        -0.001594      0.003188      0.009159
O	      1.92485      8.27622      8.40371         0.002224      0.006681     -0.013173
O	      1.96352     10.35264     10.43147        -0.007393      0.002971     -0.000045
