# total energy = -49.25280179 eV
 
CRYSTAL
PRIMVEC
0.000167 2.118322 2.118660 
2.115972 -0.000702 2.119533 
8.912442 8.926776 -0.451794 
PRIMCOORD
8 1
Li	      8.56769      8.57161     -0.09580         0.043057      0.043100     -0.027911
Li	      6.92274      6.93222      3.65772        -0.029520     -0.030909      0.017176
Li	      6.69248      8.81634      1.77528        -0.009816     -0.009515      0.010225
Ti	      2.23516      4.35049      2.00355        -0.014285     -0.017097      0.016341
O	      2.36389      2.36172      1.87180         0.075490      0.069477     -0.054796
O	      4.22265      4.21816      2.13711        -0.064297     -0.055026      0.040972
O	      6.62732      6.63468      1.83405         0.050304      0.050088     -0.032766
O	      8.86537      8.87111      1.72606        -0.050933     -0.050117      0.030758
