# total energy = -72.49997047 eV
 
CRYSTAL
PRIMVEC
-0.000179 2.077952 2.082775 
10.178824 -0.102648 10.514388 
6.121543 2.071681 4.171197 
PRIMCOORD
10 1
Li	     10.20299      4.01918     10.54040         0.005406     -0.005118      0.024786
Li	      6.11007     -0.06073      6.31157        -0.003934      0.001196      0.001703
Li	      8.13594      0.00891      8.33732        -0.000752      0.005613     -0.022797
Ti	     16.20535      1.98962     14.67198        -0.101074      0.059756     -0.065221
Ti	      2.13420      2.03913      4.20627         0.111053     -0.063103      0.064493
O	     12.17875      1.91460     12.66453        -0.038136     -0.044664      0.044214
O	      4.08178      2.06475      4.18240        -0.012894      0.004543     -0.000640
O	      6.16282      2.11347      6.21389         0.039367      0.044664     -0.045292
O	      8.15208      2.11626      8.28836         0.008201      0.091829     -0.072613
O	     10.18858      1.91214     10.59000        -0.007236     -0.094717      0.071367
