# total energy = -72.40462264 eV
 
CRYSTAL
PRIMVEC
0.000214 2.097916 2.094146 
9.944803 -0.067899 10.539958 
3.977793 2.097952 2.094501 
PRIMCOORD
10 1
Li	      5.96710      2.06484      4.22995        -0.002025     -0.026433      0.028426
Li	      3.98032      2.08989      6.27889        -0.000846      0.029527     -0.025195
Li	      7.95697     -0.05206      8.43278         0.000850     -0.002020     -0.002416
Ti	      3.97668      2.09574      2.10499         0.007533      0.039974     -0.045031
Ti	      5.97002      2.06247      8.40762        -0.006205     -0.041146      0.046246
O	     11.93439      2.05460     12.61657         0.002162      0.003254     -0.003279
O	      3.97839      2.20787      4.08960         0.002700      0.028262     -0.044163
O	      5.96890      1.95004      6.42292         0.000958     -0.026089      0.043872
O	      7.95784      2.03579      8.43646        -0.006431     -0.004338      0.001552
O	      9.94602      2.04525     10.52647         0.001303     -0.000993     -0.000011
