# total energy = -70.46576822 eV
 
CRYSTAL
PRIMVEC
0.001825 2.112337 2.101657 
2.112677 0.001659 2.101798 
11.058570 11.060423 -0.485929 
PRIMCOORD
10 1
Li	     10.78705     10.78414     -0.21717        -0.015701     -0.017469     -0.008704
Li	      4.42503      4.42723     -0.19268        -0.000811     -0.000347      0.001624
Li	     11.24040     11.23680      3.54047         0.014856      0.013355      0.010645
Ti	      4.38444      4.38578      4.04285        -0.047577     -0.046024      0.076441
Ti	      6.57939      6.58231     -0.22459         0.048873      0.046943     -0.077068
O	      2.40380      2.40534      1.82889         0.106740      0.108940     -0.109433
O	      4.36575      4.36783      1.96323        -0.025625     -0.027691      0.014385
O	      6.59821      6.60029      1.85479         0.023968      0.025931     -0.010205
O	      8.56012      8.56258      1.99022        -0.106636     -0.106411      0.105437
O	     11.01331     11.01014      1.66219         0.001914      0.002772     -0.003121
