# total energy = -83.75832747 eV
 
CRYSTAL
PRIMVEC
0.022946 6.156695 6.276542 
4.089431 4.100963 8.351225 
4.067806 2.051206 2.077271 
PRIMCOORD
12 1
Li	      0.05050      6.15345      6.27498        -0.007202      0.000733      0.004771
Li	      6.11859      8.20334     10.44268         0.004280      0.000343     -0.030040
Li	      6.13524     10.25584     12.52809        -0.000439     -0.000074     -0.009861
Li	      2.06601      4.10061      6.26800        -0.012000     -0.001139      0.022810
Ti	      4.12924      6.14948     10.33578         0.435936     -0.000256     -0.106393
Ti	      4.04967      6.15065      6.36747        -0.409723      0.003511      0.113277
O	      5.94084      6.15068     10.40079        -0.412553     -0.001561     -0.004029
O	      4.07473      8.20458     10.52520         0.004619      0.001840      0.018917
O	      2.04190      4.10214      4.17618         0.002172     -0.001528      0.002578
O	      4.10147      4.10091      6.17808         0.008137     -0.002161     -0.006193
O	      2.23515      6.15406      6.30598         0.395718     -0.000291     -0.002629
O	      4.09192      6.15167      8.35181        -0.008945      0.000583     -0.003209
