# total energy = -83.73967814 eV
 
CRYSTAL
PRIMVEC
0.035232 6.390429 6.380339 
3.994556 2.134892 6.367305 
3.996264 4.252615 4.248819 
PRIMCOORD
12 1
Li	      3.99651      4.24950      4.25369         0.013215      0.006378     -0.008081
Li	      3.99403      6.35999      6.35401        -0.025463     -0.016405     -0.022701
Li	      0.04269      4.27939      4.27544         0.038877      0.021776      0.013606
Li	      2.01593      4.29065      6.34395         0.000160     -0.006887      0.005721
Ti	      5.98906     10.58070     12.71468        -0.331415     -0.170550     -0.148803
Ti	      2.04414      2.16188      4.31204         0.320711      0.165321      0.170157
O	      6.03179     10.66833     14.85271         0.002039     -0.000303      0.007899
O	      3.91489      8.51361     10.61309        -0.365446     -0.003289      0.006544
O	      1.99452      4.12179      4.12055        -0.000978     -0.151257     -0.166238
O	      4.11855      4.27103      6.37426         0.355077     -0.013232      0.006105
O	      2.04306      6.51706      6.51062        -0.000392      0.168242      0.126439
O	      4.01729      6.39139      8.49197        -0.006386      0.000207      0.009352
