# total energy = -83.57246004 eV
 
CRYSTAL
PRIMVEC
-0.058625 6.028185 8.055916 
3.744861 4.002685 10.741618 
3.744948 4.002371 5.370555 
PRIMCOORD
12 1
Li	      3.65762      9.98203     13.80354         0.004642     -0.018865      0.014254
Li	      3.72451      6.01156     13.08750         0.000111     -0.001770     -0.012539
Li	      3.73304      8.06890     11.11807        -0.003902      0.017194      0.014594
Li	      5.59702      8.01260     13.56465        -0.000008     -0.000704      0.012714
Ti	      1.82926      5.95065     10.32092        -0.303839     -0.045253     -0.230893
Ti	      1.87545      2.06984      4.95041         0.297102      0.045977     -0.232113
O	      1.73322      7.84278     11.17572         0.020792     -0.005584      0.280167
O	      3.64924      8.08146     13.16394        -0.324269      0.002690     -0.029717
O	      5.59706      8.01275     15.83513         0.000439      0.001834     -0.019901
O	      3.74141      9.96956     15.84913         0.329586     -0.000189     -0.029341
O	      1.91242      6.20581      8.49024        -0.019651      0.004909      0.280106
O	      3.72458      6.01158     10.96362        -0.001002     -0.000241     -0.047331
