# total energy = -83.75861506 eV
 
CRYSTAL
PRIMVEC
0.003963 4.057221 4.181235 
6.161237 -0.005252 6.268875 
4.110505 4.053802 4.180854 
PRIMCOORD
12 1
Li	      4.11599      4.05830      8.35804         0.001146     -0.000913      0.001502
Li	      4.11288      6.06986      6.26873         0.004494      0.003499      0.018254
Li	      2.05664      2.03529      4.18030         0.003245     -0.004918     -0.020187
Li	      8.22303      6.07652     10.45329        -0.001324      0.000115     -0.006700
Ti	      6.17436      4.01554     10.34227        -0.010405     -0.411442     -0.108821
Ti	      6.17375      4.08265      6.37501        -0.004275      0.407140      0.108839
O	      2.05336      1.84084      2.12481         0.018177     -0.386684      0.004575
O	      4.11362      6.26170      8.32353         0.005429      0.401301     -0.001764
O	      6.16647      6.07790     10.44939         0.004400     -0.006533      0.000237
O	      2.05798      4.07416      4.26070        -0.015022     -0.003416      0.007668
O	      4.10941      4.02978      6.18779         0.002808      0.000429     -0.011924
O	      6.16898      4.04933      8.35832        -0.008675      0.001423      0.008321
