# total energy = -84.62529057 eV
 
CRYSTAL
PRIMVEC
-0.080617 4.066997 4.059411 
6.339270 1.961193 8.069692 
4.251088 1.993665 1.988589 
PRIMCOORD
12 1
Li	      6.34193      1.98588      8.02183        -0.001868      0.023988      0.001668
Li	      4.21299      3.98743      4.05427         0.005654     -0.003742      0.006084
Li	      6.32330      3.98963      6.04284        -0.014357     -0.007324     -0.000299
Li	      8.40923      3.98915      8.03129         0.020824      0.014202     -0.004665
Ti	      2.05987      4.09210      6.05523         0.005533      0.027206      0.033274
Ti	      8.44270      5.99289     10.12068         0.001320      0.004164      0.001034
O	      2.10571      2.00568      2.00647         0.008813     -0.026700     -0.007842
O	      4.40937      1.90051      4.04443         0.077825     -0.116799      0.006566
O	      6.45731      6.05385     10.00675         0.100002      0.009029     -0.108777
O	      8.40605      6.00541     12.09902         0.001983      0.001880     -0.021459
O	      4.02057      3.99605      6.13142        -0.103730     -0.006027      0.074951
O	      6.15119      4.08014      8.03420        -0.101997      0.080122      0.019463
