# total energy = -83.75824274 eV
 
CRYSTAL
PRIMVEC
-0.005057 4.184065 4.055710 
6.150797 2.096762 8.113661 
4.100346 4.185043 4.057939 
PRIMCOORD
12 1
Li	      6.14559      8.37288     10.14454         0.012816      0.000475      0.000722
Li	      6.15027      4.18791     10.13393        -0.002491      0.018781      0.001514
Li	      6.15364      6.28057      8.12259        -0.006312     -0.002571     -0.002306
Li	      8.19779      6.28337     10.15604         0.010002     -0.028604     -0.006842
Ti	      4.10330      8.26298      8.08160        -0.003753     -0.105349     -0.410131
Ti	      4.10701      4.29495      8.14816        -0.015332      0.104443      0.422192
O	      8.19764      8.40881     14.01852        -0.010118      0.007011     -0.396364
O	      4.09663      6.27807      8.11533         0.012203      0.008762      0.000843
O	      6.14677      6.24500     10.32467        -0.001623     -0.007819      0.400760
O	      8.19521      6.36132     12.19335         0.010198      0.021985      0.002115
O	      4.09811      4.18587      6.08785         0.001791      0.002729     -0.003164
O	      6.14839      4.10656      8.09616        -0.007382     -0.019842     -0.009340
