# total energy = -84.49141832 eV
 
CRYSTAL
PRIMVEC
-0.140767 6.230354 5.960094 
4.418749 1.988764 5.954295 
4.414444 1.990443 1.981317 
PRIMCOORD
12 1
Li	      8.64691      4.09464      7.94287        -0.010521      0.041806     -0.019379
Li	      0.06479      1.98247      1.98923         0.013139     -0.019065     -0.007559
Li	      6.49120      4.12460      5.95183        -0.011638      0.019996      0.008312
Li	      2.32811      4.00134      5.95250         0.007563     -0.043226      0.018767
Ti	      1.99977      6.31804      7.94652        -0.171349      0.322411     -0.003911
Ti	      4.41518      6.01913      5.95455         0.179031     -0.314422      0.003985
O	      2.20900      1.93198      1.98545         0.002884     -0.348049     -0.008189
O	      4.53293      8.15575      9.93153         0.209002     -0.039977     -0.005736
O	      6.30141      6.17044      9.92389        -0.213870      0.043013      0.006987
O	      4.34720      4.17558      5.95559        -0.003290      0.336732      0.007072
O	      6.71478      8.19070     11.91207         0.006023      0.001240      0.003496
O	      4.11944      6.13555      7.94343        -0.006974     -0.000458     -0.003845
