# total energy = -161.08943775 eV
 
CRYSTAL
PRIMVEC
-0.004639 4.159191 4.196143 
10.528158 2.014432 12.623394 
6.315982 2.063718 4.190174 
PRIMCOORD
20 1
Li	     10.58732      2.09596     12.71660        -0.005992     -0.003346     -0.021532
Li	      8.42769      6.11797     10.42976        -0.014571      0.007052      0.002300
Li	     14.69916      6.18325     16.79708         0.011621      0.012958     -0.002909
Ti	     10.49297      6.24490     12.73598         0.004188     -0.017513      0.032872
Ti	     12.61056      6.08343     14.63301         0.005534      0.003831     -0.054903
Ti	     10.58752      4.16277     14.67074         0.058762      0.090272      0.028755
Ti	      2.06912      2.12228      4.10888         0.007710      0.010674     -0.049480
Ti	     10.48107      4.03610     10.41673        -0.047450     -0.072075     -0.014545
Ti	      6.35246      2.09874      8.49624         0.014788     -0.015726      0.081564
Ti	     14.77316      4.04615     14.72578        -0.019223      0.033756      0.026343
O	     12.67491      3.90760     14.71755        -0.017945      0.017307      0.006873
O	      4.21340      2.13445      4.17379        -0.021010     -0.022655      0.003626
O	      6.26485      2.07452      6.33606        -0.008926      0.002108      0.004899
O	      8.42749      6.19140     12.61625        -0.001203     -0.004571      0.015534
O	     10.53176      6.18685     14.89318        -0.014256      0.013136     -0.032847
O	     12.64519      6.19196     16.76031         0.008469     -0.035813     -0.007051
O	      4.24339      4.11463      6.32396         0.014856      0.008700      0.010652
O	      6.26339      4.24233      8.32373         0.012631     -0.027960     -0.020875
O	      8.39268      4.11425     10.44758         0.000738      0.006285      0.005561
O	     10.53624      4.12422     12.56789         0.011281     -0.006420     -0.014837
