# total energy = -137.71475136 eV
 
CRYSTAL
PRIMVEC
-0.150395 18.952353 18.568706 
2.068346 4.198596 6.186106 
2.089781 2.090016 -0.001151 
PRIMCOORD
18 1
Li	      2.05995      4.20491      2.17743         0.009957     -0.005580     -0.012652
Li	      2.01286     10.51946      8.34724         0.001747      0.007140     -0.005836
Li	      2.00821     14.71152     16.40504         0.006925     -0.014422      0.006527
Li	      1.94516     21.04200     22.57606        -0.019421      0.015275      0.010978
Ti	      2.06353      4.20563      6.17921        -0.019567      0.018467     -0.021197
Ti	      2.02820      8.41378     10.29512         0.020276     -0.002623     -0.036224
Ti	      2.03173      8.41444      6.29230         0.039106     -0.056375      0.036325
Ti	      1.98569     16.82088     18.45792        -0.022043      0.041630     -0.045853
Ti	      1.98539     16.82571     14.47036        -0.018265     -0.004105      0.081140
O	      1.98928     20.99730     20.62272         0.058322     -0.055910     -0.024834
O	      2.02871      4.23727      4.12244        -0.040748      0.041546      0.007394
O	      2.04941      6.30794      6.28547        -0.018482      0.007058      0.026655
O	      2.01467      8.42892      8.28146         0.002351      0.001982     -0.025795
O	      2.04987     10.48116     10.38452         0.036757     -0.007143     -0.025635
O	      2.00744     12.61892     12.37638        -0.002197     -0.000350      0.000466
O	      1.96004     14.76207     14.36309        -0.046105      0.013519      0.005643
O	      1.99812     16.81107     16.47089        -0.004273      0.000949      0.019751
O	      1.96078     18.93476     18.48126         0.015660     -0.001056      0.003149
