# total energy = -90.87161832 eV
 
CRYSTAL
PRIMVEC
4.108332 0.001086 0.000828 
-0.000822 0.001032 -4.108352 
2.054925 8.375405 -2.054854 
PRIMCOORD
16 1
Li	      2.05416      2.09321     -4.10728         0.000689      0.000203     -0.000228
Li	      2.05044      0.19341     -2.04924         0.005437      0.061230     -0.005459
Li	      4.10840      2.09316     -2.05277         0.000982      0.000378     -0.000330
Li	      2.05903      3.99220     -2.05727        -0.005816     -0.062773      0.005082
Mn	      4.10587      0.11803     -4.10450         0.002813      0.154471     -0.002887
Mn	      4.11130      4.06966     -4.10960        -0.003181     -0.155924      0.002772
Ni	      2.05520      6.28053     -4.10799        -0.000303      0.000124      0.000309
Ni	      4.10961      6.28053     -2.05355        -0.001055      0.000300     -0.000621
O	      4.11217      4.23464     -2.05547        -0.007362     -0.076545      0.006308
O	      2.05491      6.51823     -2.05324         0.005912      0.092851     -0.004929
O	      4.10827      2.09380     -4.10691         0.000611      0.001687     -0.000502
O	      2.05722      4.23464     -4.11048        -0.006712     -0.076318      0.007817
O	      4.10740      8.32637     -2.05092         0.005573      0.076006     -0.006984
O	      4.10992      6.04274     -4.10823        -0.005258     -0.092667      0.005817
O	      2.05227      8.32638     -4.10596         0.006875      0.075711     -0.005663
O	      2.05440      2.09274     -2.05312         0.000796      0.001268     -0.000503
