# total energy = -69.25020400 eV
 
CRYSTAL
PRIMVEC
0.019205 6.046795 5.893187 
4.459445 1.815114 6.126175 
4.339275 1.920434 2.084062 
PRIMCOORD
12 1
Li	      4.12579      1.87160      2.04132        -0.029900     -0.012003      0.012455
Li	      2.10102      6.00129      7.88066        -0.008029     -0.007228     -0.016850
Li	      2.27022      1.85858      3.99620         0.011726     -0.001111      0.002830
Li	      4.30048      6.01743      6.07680         0.001497      0.011579      0.005319
Li	      2.47751      3.91616      6.11273         0.010722     -0.006286      0.001224
Ti	      0.18301      1.91292      1.95674         0.237018     -0.166010     -0.036229
O	      6.49165      3.85537      8.12380        -0.272651     -0.013624     -0.017152
O	      4.34167      1.97017      4.06097         0.029016      0.221846     -0.011704
O	      6.88972      5.99145     10.25254         0.025028     -0.009301     -0.004892
O	      4.50439      3.87553      6.13859        -0.012551     -0.003819      0.070349
O	      6.70977      7.67916     11.87712         0.004021      0.011198      0.010400
O	      4.17040      5.74974      8.14547         0.004103     -0.025239     -0.015748
