# total energy = -87.17074703 eV
 
CRYSTAL
PRIMVEC
-0.036080 8.227693 8.353459 
2.055980 2.037950 4.186680 
4.099957 4.103791 -0.008002 
PRIMCOORD
16 1
Li	     -0.03345      8.22682      8.35478         0.000071      0.001181     -0.000367
Li	      6.13242      8.21523      6.27220         0.000059     -0.001334      0.008431
Li	      4.08181      6.16353      6.27420         0.000929     -0.003896      0.008263
Li	     -0.01509      4.11422      4.17716        -0.000744     -0.000519     -0.001734
Li	      2.03418      6.16610      4.17381         0.000736     -0.001198      0.003756
Li	     -0.00663      6.15507      6.26206         0.000900      0.002504     -0.008614
Li	      2.04121      8.20396      6.25879        -0.003007      0.002281     -0.007163
Ti	      2.01648     10.27890      8.34987        -0.000077      0.000212      0.001663
O	      2.01924     10.27036     10.30933        -0.003068      0.005275     -0.119277
O	      4.10465      4.09812      2.22386         0.003391     -0.005232      0.118902
O	      2.14111      4.09460      4.18404         0.081721      0.011522      0.004965
O	      4.10235      6.05786      4.17935        -0.011160     -0.080890      0.005052
O	      2.03766      6.16310      6.29143         0.000411     -0.003486     -0.017751
O	      4.08690      8.20586      6.24308        -0.000212      0.003371      0.016351
O	      2.02168      8.31082      8.35446         0.013228      0.081054     -0.006069
O	      3.98329     10.27446      8.34988        -0.083179     -0.010844     -0.006409
