# total energy = -120.75188007 eV
 
CRYSTAL
PRIMVEC
-0.025786 4.166598 4.166944 
10.385537 2.064188 12.455659 
4.158128 2.069190 2.071751 
PRIMCOORD
20 1
Li	      4.13031      6.21837      6.25610         0.004873     -0.005801      0.004316
Li	      6.21235      6.22908      8.31492         0.001724      0.003430     -0.002563
Li	      4.13714      4.17311      8.29952        -0.007194      0.008354     -0.006309
Li	     10.37393      6.22108     12.46436        -0.000940      0.002945      0.003073
Li	      8.29375      4.27269     12.34953         0.000821      0.025775     -0.029234
Li	      6.22529      4.14562      6.23116         0.001535      0.003335     -0.004448
Li	     10.38430      4.01908     10.49198         0.000377     -0.033176      0.034484
Li	      8.30432      2.06849     10.37900        -0.001662     -0.004450      0.003700
Ti	     10.37115      4.22819     14.45910        -0.014002      0.169754     -0.167525
Ti	      8.30655      4.06118      8.38581         0.015338     -0.169703      0.162450
O	      1.94823      2.04138      2.09667        -0.095727      0.030260     -0.012460
O	      4.16440      2.16218      4.24281         0.023018      0.038080      0.027841
O	      6.10690      2.08660      6.19464        -0.092613     -0.014890      0.010795
O	      8.25335      6.33972     12.44078        -0.004027      0.217378      0.015204
O	     10.39952      6.11636     14.56997         0.000955     -0.219730     -0.012764
O	      2.18508      4.13807      4.19523         0.098994      0.014810     -0.012697
O	      4.12776      4.06271      6.14600        -0.022419     -0.037126     -0.029341
O	      6.34402      4.18176      8.29255         0.092852     -0.024192      0.011601
O	      8.33127      4.16816     10.27347         0.003105     -0.007726     -0.191379
O	     10.34635      4.12098     12.57074        -0.005007      0.002671      0.195256
