# total energy = -105.23798917 eV
 
CRYSTAL
PRIMVEC
-0.002403 10.465848 10.601464 
4.027678 6.475029 10.420403 
4.148259 2.211102 2.009276 
PRIMCOORD
20 1
Li	      3.96359      6.50752     10.26836         0.021737      0.008891     -0.003897
Li	      6.07621     12.74792     14.60202        -0.013666     -0.013683      0.009575
Li	      4.00051      4.21580      4.12895        -0.019068     -0.010871     -0.008752
Li	      6.16155     14.86993     16.76714        -0.002542      0.000741     -0.000024
Li	      2.10133      4.31650      6.30529         0.016742      0.013987     -0.001128
Li	      4.17304     12.84670     16.78767         0.021325      0.012088      0.009468
Li	      2.03824      6.31712      8.26105        -0.028683     -0.006633      0.006494
Li	      4.21119     10.55401     10.65010        -0.024399     -0.011704      0.002916
Li	      6.13206     10.73084     12.66051         0.027950      0.012888     -0.009283
Ti	      4.02853     10.66836     14.66463        -0.002526     -0.004108     -0.000643
O	      5.94663      8.74485     12.22695         0.000101     -0.016080      0.023503
O	      4.03508     12.63241     14.66019         0.006141     -0.108358     -0.016276
O	      1.95429      4.19065      4.24489        -0.112715     -0.012924     -0.013808
O	      4.14262      4.43351      6.25415        -0.004575      0.100939      0.019478
O	      6.22005     12.87182     16.67841         0.110649      0.016641      0.008139
O	      4.15259      6.42407      8.23133        -0.000430     -0.002807     -0.096549
O	      2.22858      8.31529      8.68949         0.000303      0.011729     -0.025935
O	      4.08918      8.53248     10.45999        -0.004555     -0.002726     -0.001488
O	      2.07266     10.51441     10.53772         0.000446      0.007235      0.006690
O	      4.01267     10.63544     12.68990         0.007763      0.004756      0.091519
