# total energy = -77.91416179 eV
 
CRYSTAL
PRIMVEC
-0.000370 2.088860 2.092514 
10.221154 -0.047394 10.508638 
4.089999 2.090211 2.090650 
PRIMCOORD
10 1
Li	     10.22693      2.11512     12.52576        -0.013851      0.009206     -0.003861
Li	     10.22066      1.99031      8.47048         0.013430     -0.008869      0.005579
Ti	      6.13973      4.15497      6.30389         0.000032      0.088619     -0.083301
Ti	      4.08635      2.08714      6.27626         0.001777     -0.095705      0.086847
Ti	      8.17851      2.05183     10.49914         0.000544      0.002643     -0.001589
O	     12.27005      2.05327     12.59357        -0.001585     -0.008671     -0.019895
O	      4.09463      2.12152      4.15260         0.021413     -0.007883      0.015886
O	      6.13195      2.03132      6.33532        -0.023630      0.012899     -0.018590
O	      8.17756      2.05215      8.40275         0.004249      0.008216      0.020958
O	     10.22385      2.05272     10.49823        -0.002378     -0.000454     -0.002034
