# total energy = -78.04155729 eV
 
CRYSTAL
PRIMVEC
0.001908 2.043662 2.039484 
10.489277 -0.272882 10.469665 
6.282871 1.979774 4.145451 
PRIMCOORD
10 1
Li	     12.63861      3.77069     12.55147         0.013032      0.004024     -0.007367
Li	      8.33382     -0.13100      8.28733        -0.013394     -0.003823      0.006108
Ti	      6.19671      1.95219      4.15987        -0.033018     -0.001761     -0.028418
Ti	      2.10082      1.98794      4.13077        -0.001565      0.002519      0.004254
Ti	      4.28676      1.96155      6.20966         0.031047     -0.008386      0.022487
O	     12.51567      1.73259     12.54111        -0.020041     -0.016718      0.038912
O	      4.11923      2.04226      4.08033        -0.067082      0.016129     -0.010550
O	      6.36352      1.87056      6.28879         0.071899     -0.012689      0.012035
O	      8.45718      1.90711      8.29657         0.017662      0.015562     -0.038969
O	     10.48615      1.81990     10.41928         0.001459      0.005143      0.001508
