# total energy = -92.36712234 eV
 
CRYSTAL
PRIMVEC
-0.000012 2.058533 2.058364 
8.310090 2.111478 -2.111324 
0.003243 4.217402 -4.217113 
PRIMCOORD
16 1
Li	      4.21362      4.22446     -0.10767        -0.007424      0.000458     -0.000435
Li	      8.16912      6.34603     -2.22982        -0.009780      0.020951     -0.020445
Li	      2.22419      4.13075     -2.07027         0.008427     -0.020178      0.018848
Li	      6.17976      6.25143     -4.19354         0.009037     -0.001759      0.002092
Mn	      8.28208      8.35676     -4.23970        -0.025799     -0.047291      0.047348
Mn	      2.11127      2.11952     -0.06131         0.028685      0.047048     -0.047843
Ni	      6.18376      4.23129     -2.17295         0.053306     -0.035438      0.036351
Ni	      4.20943      6.24485     -2.12777        -0.054853      0.035635     -0.038159
O	      6.24255      6.25575     -2.13881         0.121066      0.126036     -0.127153
O	      0.08702      4.32336     -2.26491         0.012090      0.041381     -0.040495
O	      6.42445      4.20174     -0.08518         0.092613     -0.095739      0.097990
O	      0.08365      1.96173      0.09662         0.063964     -0.013320      0.011471
O	      1.99629      4.04135      0.07520        -0.014510     -0.041767      0.041351
O	      4.15066      4.22038     -2.16207        -0.122900     -0.125342      0.127560
O	      1.99970      6.40324     -2.28648        -0.069457      0.013604     -0.012776
O	      3.96548      2.05683      0.00132        -0.084466      0.095721     -0.095704
