# total energy = -95.44329711 eV
 
CRYSTAL
PRIMVEC
0.120836 6.359586 6.353598 
4.208296 2.103154 6.308731 
4.208295 4.206981 4.207451 
PRIMCOORD
12 1
Li	      6.36167     10.49931     12.59997         0.024447      0.018354      0.018164
Li	      2.20680      4.30497      6.40435        -0.012057     -0.016080     -0.015701
Ti	      0.18871      6.35652      6.35315        -0.028449      0.027294      0.014844
Ti	      4.24978      4.24857      8.45140        -0.005435      0.029502      0.047712
Ti	      6.21649      6.34125      8.44487        -0.042087     -0.010782      0.001739
Ti	      0.18414      4.16245      4.16083         0.021045     -0.016168     -0.053778
O	      6.33484      4.23250      8.43752         0.003202     -0.004240     -0.009581
O	      4.32918      8.42296     10.52615         0.036110      0.013452      0.003751
O	      2.24375      4.24969      4.25174         0.049331     -0.013618     -0.004936
O	      4.25028      4.23053      6.33285         0.020781     -0.001947      0.004680
O	      2.16027      6.33524      6.33208        -0.034466     -0.017524     -0.018085
O	      4.08351      6.31387      8.41287        -0.032421     -0.008245      0.011191
