# total energy = -95.67249969 eV
 
CRYSTAL
PRIMVEC
-0.001674 2.102458 2.102074 
4.180197 -0.042389 4.243254 
8.304751 6.288856 2.113796 
PRIMCOORD
12 1
Li	      8.18522      6.23518      2.16852         0.015857     -0.002682      0.002703
Li	      6.35228      6.34402      4.16256        -0.016059      0.005242     -0.004763
Ti	      6.33551      4.13195      6.37739        -0.096102     -0.291446      0.296941
Ti	      8.29748      4.12040      4.28278        -0.045480     -0.192978      0.182956
Ti	      2.11425      2.12604      4.17712         0.057528      0.195292     -0.181162
Ti	      4.07830      2.11570      2.08258         0.086915      0.286015     -0.294957
O	      1.90177      2.09207      2.11398         0.101484      0.001895     -0.027920
O	      4.33157      4.19716      2.10281        -0.098560      0.000594      0.023985
O	     10.38243      6.32532      6.27400        -0.107118      0.023071      0.007179
O	      4.18057      2.10099      4.19913        -0.097608     -0.042187      0.056894
O	      6.23187      4.14658      4.26073         0.095027      0.041627     -0.056738
O	      8.33509      6.21066      4.29926         0.104117     -0.024444     -0.005119
