# total energy = -94.70990296 eV
 
CRYSTAL
PRIMVEC
-0.004226 5.975967 4.067469 
5.628526 0.006385 6.109912 
5.628741 5.981162 6.107643 
PRIMCOORD
12 1
Li	      1.87543      3.32006      4.07240        -0.006033      0.013541      0.000670
Li	      3.75295      3.33418      6.10907         0.004787      0.005035      0.001669
Ti	      5.62674      0.35462      6.11195         0.000008      0.019207     -0.000172
Ti	      7.18429      5.36549      8.14625        -0.029222     -0.103967      0.002109
Ti	      9.69406     11.34517     14.25083         0.035657     -0.106849      0.001901
Ti	      5.62752      8.82184      8.14435         0.000389      0.154186     -0.004824
O	      7.44869      3.44347      8.14722        -0.193488      0.016958      0.001503
O	      3.80566      9.41678      8.14174         0.191811      0.015245     -0.000853
O	      5.62971      2.40328      6.11138        -0.000154     -0.067569     -0.000562
O	      7.53542      5.65256     10.18164        -0.019037      0.037869     -0.002448
O	      3.71648      5.64390      6.10787         0.012488      0.041087      0.001829
O	      5.62363      6.69765      8.14447         0.002793     -0.024744     -0.000822
