# total energy = -72.37372108 eV
 
CRYSTAL
PRIMVEC
-0.232974 2.121788 2.121147 
7.194290 -2.245437 11.876194 
7.194621 0.578542 9.051300 
PRIMCOORD
10 1
Li	      7.09010      1.52539     10.00216        -0.002272      0.006735      0.006796
Li	      9.78064      0.99717     15.12254         0.013864     -0.003138     -0.002135
Li	      4.39692     -0.75971      7.71740        -0.012578     -0.005557     -0.006710
Ti	      8.48121      1.25971     12.56130         0.141622      0.014412      0.012132
Ti	      5.69709     -1.02691     10.27439        -0.144835     -0.011791     -0.011681
O	      8.45648     -0.15301     13.97253        -0.006048     -0.000282     -0.000556
O	      9.63547     -0.43462     16.51518        -0.157077     -0.009276     -0.008195
O	      4.54250      0.66832      6.32102         0.159073      0.009061      0.009826
O	      5.72125      0.38615      8.86310         0.011396      0.000505      0.000888
O	      7.08938      0.11645     11.41774        -0.003145     -0.000668     -0.000365
