# total energy = -84.58555263 eV
 
CRYSTAL
PRIMVEC
-0.027736 6.304210 6.304786 
4.164018 2.102770 6.254618 
4.164211 4.178449 4.179066 
PRIMCOORD
12 1
Li	      4.17384      4.21832      8.36881         0.000990      0.013389      0.013763
Li	      6.10484      6.29111      8.36617        -0.023225     -0.000097     -0.000111
Li	      4.28289      6.29851     10.44909         0.023359     -0.000512     -0.001008
Li	      6.21397      8.37130     10.44640        -0.000931     -0.013191     -0.013482
Ti	      8.15925      6.25268     10.40369        -0.431300     -0.075504     -0.075662
Ti	      2.22830      6.33688      8.41184         0.439808      0.074435      0.074801
O	      6.18939     10.39470     14.54577         0.008333     -0.110099     -0.110260
O	      4.17073      8.49914     10.57434        -0.009005      0.111744      0.111495
O	      6.33902      6.29650     10.44713         0.418689     -0.007796     -0.007194
O	      4.20880      4.08947      6.16417         0.009726     -0.048900     -0.048400
O	      6.17899      8.50029     12.65120        -0.011214      0.048199      0.047221
O	      4.04887      6.29309      8.36811        -0.425231      0.008332      0.008835
