# total energy = -84.50725990 eV
 
CRYSTAL
PRIMVEC
-0.000638 2.078094 2.071691 
4.218475 -0.029956 4.171962 
6.306091 6.255153 -0.023522 
PRIMCOORD
12 1
Li	      6.30470      8.32941      2.05011         0.000171      0.003615     -0.002527
Li	      8.41760      8.31569      4.13486        -0.001311      0.000518      0.000039
Li	      4.16100      2.04138      2.09844         0.004596     -0.020584      0.021143
Li	      6.36053      6.25857      4.12168        -0.002936      0.015845     -0.016548
Ti	      6.14964      2.03518      4.18033        -0.489417     -0.061601      0.069642
Ti	      4.37057      6.26331      2.04144         0.472244      0.065739     -0.073910
O	      2.11929      2.17099      1.98352        -0.012102      0.108520     -0.124210
O	      4.14525      4.25827      1.97128        -0.022141      0.058611     -0.072526
O	      6.18429      6.22295      2.07830        -0.443640      0.004161      0.001638
O	      4.33534      2.07530      4.14382         0.448466     -0.003707     -0.000765
O	      6.37370      4.04004      4.25064         0.030455     -0.051211      0.065548
O	      8.40115      6.12807      4.23797         0.015615     -0.119904      0.132475
