# total energy = -130.55432362 eV
 
CRYSTAL
PRIMVEC
-0.000874 4.144762 4.271755 
8.391457 -0.004811 8.546373 
4.195846 4.144989 4.270903 
PRIMCOORD
16 1
Li	      4.19820      6.21629      6.48538        -0.000586      0.001025     -0.016967
Li	      2.09747      2.06627      4.19384         0.001784      0.000362      0.018111
Ti	      8.38180      4.15009     12.71609         0.008505      0.015933     -0.028387
Ti	      6.28879      4.12693      6.51059         0.004825     -0.014043      0.022912
Ti	      4.20375      4.12346      8.43699        -0.021365     -0.008498      0.001265
Ti	     10.50006      4.15359     10.78853         0.000769      0.013256     -0.002287
Ti	      8.39139      6.21762     10.73470        -0.002915     -0.021321      0.000676
Ti	      6.29643      2.06236      8.49136         0.001538      0.008872     -0.005326
O	     10.49119      6.21155     14.92516        -0.001764     -0.016270      0.002031
O	      4.19606      2.06701      4.30073         0.001854      0.015542      0.001739
O	      6.29254      6.21090     10.55940        -0.003151      0.010277     -0.021131
O	      8.39534      2.06624      8.66644         0.000471     -0.006596      0.023903
O	      2.08876      4.07217      4.35828         0.018006      0.002547     -0.002064
O	      4.18884      4.21153      6.32095         0.026723     -0.001923      0.006310
O	      6.30245      4.20372      8.62999        -0.023381     -0.003307     -0.010719
O	      8.40179      4.07512     10.59639        -0.011312      0.004143      0.009935
