# total energy = -160.31323007 eV
 
CRYSTAL
PRIMVEC
0.062800 10.522058 10.519593 
4.187776 6.307615 10.567761 
4.188329 8.438622 8.436464 
PRIMCOORD
20 1
Li	      2.27519     10.60257     12.74735        -0.019824      0.000141     -0.013868
Li	      6.33936     21.05870     23.19114        -0.000332     -0.001616     -0.000049
Li	      6.15123     12.54246     14.68846         0.020682      0.013152     -0.000965
Ti	      0.02135      0.10056      0.10574         0.003419      0.048055      0.032889
Ti	      0.09901      2.06704      2.07074         0.028800     -0.035302     -0.042548
Ti	      4.21398     12.64201     12.64838        -0.002979      0.002458     -0.004176
Ti	      4.14099     14.78344     14.78538        -0.034641      0.037775      0.029738
Ti	      6.08801     14.74875     16.85362        -0.004340      0.001903      0.023386
Ti	      4.21704     16.74780     16.75178        -0.006778     -0.039573     -0.053831
Ti	      2.33828      8.43432     10.54280         0.002874     -0.028807     -0.006413
O	      2.23895     12.63515     12.64163         0.027500      0.008346      0.001877
O	      4.18264     12.63260     14.76676        -0.004936      0.004708      0.001108
O	      1.99979      4.20955      4.21903        -0.025616      0.000844     -0.006557
O	      3.96036     14.70658     16.84172         0.014635      0.001226      0.003185
O	      6.24561     12.65620     16.90092         0.031937     -0.005170      0.006962
O	      4.24460     16.84557     18.96502         0.000368     -0.000802      0.007070
O	      6.30651     14.74645     18.98052         0.007750     -0.003139      0.014726
O	      4.46566      8.44926     10.58341        -0.006718      0.000606      0.003367
O	      6.36931     16.82646     21.07104        -0.036765     -0.003375      0.009169
O	      4.24428     10.52368     12.65794         0.004965     -0.001428     -0.005068
