# total energy = -138.50835449 eV
 
CRYSTAL
PRIMVEC
-0.000424 6.311142 6.206948 
6.256892 0.051641 6.158497 
4.190932 2.123805 2.051039 
PRIMCOORD
18 1
Li	     10.33087      2.26439      8.28804        -0.008073     -0.024341      0.000427
Li	      8.28052      2.30543      6.24757         0.014490     -0.006396     -0.022851
Li	      2.22596      2.04544      4.02896        -0.001067      0.016948      0.012314
Li	      4.25338      2.04382      6.08849        -0.013393     -0.020671      0.009760
Ti	      6.30963      8.42490     10.31755         0.053680     -0.021907     -0.017122
Ti	      6.24508      2.18158      8.18100        -0.032572      0.022371     -0.028373
Ti	      6.30924      4.32138     10.28739         0.046005      0.066467      0.025685
Ti	      6.17327      6.25208      8.24119        -0.098415     -0.066803     -0.013181
Ti	      4.21212      4.23724      8.27593         0.006359      0.017345      0.028774
O	      1.99480      2.00545      2.05889        -0.073166     -0.053167      0.001293
O	      4.29156      2.23639      4.11051         0.060300      0.048776      0.000112
O	      6.26716      2.14985      6.17204        -0.001138      0.009174      0.024388
O	      8.37584      4.23256     10.22706         0.058457     -0.006913     -0.012871
O	      4.10804      4.28346      6.20367        -0.009129      0.003239      0.011660
O	      6.32397      4.22265      8.14921         0.004736     -0.007325     -0.031115
O	      2.11854      6.27338      6.19278         0.006185      0.003323     -0.009009
O	      4.15944      6.36892      8.32669        -0.011123     -0.014169      0.014121
O	      6.25352      6.36640     10.36145        -0.002136      0.034049      0.005987
