# total energy = -114.62722598 eV
 
CRYSTAL
PRIMVEC
-0.042977 8.362659 8.362278 
4.169722 0.002036 4.161924 
4.148214 6.263327 6.263152 
PRIMCOORD
16 1
Li	     -0.00419      8.37348      8.37402         0.001033      0.018130      0.019925
Li	      2.04281      8.44083     10.36493         0.000664      0.007979     -0.007511
Li	      4.13735      8.35268      8.35452         0.000763     -0.003855      0.003423
Li	      4.08756     10.43068     10.43408        -0.002337     -0.017350     -0.019566
Li	      6.20988     10.36540     12.60526        -0.000841     -0.006116      0.009207
Ti	      6.22289      8.35385     10.43553        -0.016845     -0.008037     -0.003695
Ti	      4.11581     12.53362     12.53626         0.005071      0.016599     -0.018164
Ti	      6.20036     12.53510     14.61666         0.017644     -0.003224     -0.002660
O	      2.04979     10.52437     10.52650         0.000561      0.067545      0.065714
O	      4.02115     10.54225     12.52800        -0.075744      0.070901     -0.005708
O	      2.12387      4.12960      4.13157         0.074684     -0.058655     -0.066403
O	      4.25459      4.17973      6.16478         0.082969      0.004413     -0.082558
O	      2.00293      6.31228      6.31411        -0.077451      0.057786      0.072943
O	      4.04235      6.26417      8.44268        -0.095958     -0.007005      0.092243
O	      2.03378      8.27986      8.28183        -0.000534     -0.060944     -0.067200
O	      4.23174      8.26463     10.44203         0.086321     -0.078167      0.010007
