# total energy = -92.09133328 eV
 
CRYSTAL
PRIMVEC
0.000056 2.079985 2.079439 
4.139955 -4.244301 4.243360 
4.095247 4.222379 -4.221203 
PRIMCOORD
16 1
Li	      4.21282      1.97073     -1.96781         0.003566     -0.014685      0.013924
Li	      4.25677     -0.05019      0.05399         0.019393     -0.003268      0.003683
Li	      6.03669      2.12010     -0.03704        -0.020903      0.003101     -0.001702
Li	      6.08085      0.09942      1.98481        -0.002146      0.015375     -0.015176
Mn	      8.13230     -0.01606      0.02015        -0.106367     -0.014978      0.014521
Mn	      2.16122      2.08616     -0.00302         0.109492      0.011988     -0.011653
Ni	      2.10960     -0.08589      2.16905        -0.060279      0.066865     -0.068259
Ni	      4.08913     -2.06598      2.06933         0.061908     -0.065450      0.064784
O	      2.07175     -2.07332      2.07684        -0.121255     -0.138802      0.139112
O	      6.33169      0.00255      0.00158         0.105883      0.006343     -0.005900
O	      4.23103     -2.23015      4.31250         0.017853     -0.070836      0.071232
O	      2.02316      1.93257     -1.92934         0.092868     -0.032607      0.031268
O	      4.13043      4.38186     -2.29689        -0.086864      0.032127     -0.031052
O	      1.96752      0.07768     -0.07405        -0.023814      0.073689     -0.072899
O	      3.96204      2.06727      0.01574        -0.111472     -0.003002      0.003102
O	      4.12675     -0.07851      2.16154         0.122136      0.134139     -0.134984
