# total energy = -108.31214909 eV
 
CRYSTAL
PRIMVEC
0.107755 14.913243 14.680401 
2.097774 2.159970 4.179868 
2.125456 8.505509 6.323056 
PRIMCOORD
14 1
Li	      0.18365     14.85087     14.58771         0.002969      0.005361      0.006041
Li	      4.19626     17.11853     16.88552        -0.003991     -0.003667     -0.005835
Li	      0.08057     10.65270     10.48443         0.000476      0.000669     -0.000873
Ti	      4.21069     12.82838     12.61324        -0.038297      0.026973      0.044090
Ti	      0.06617      4.23108      4.17802         0.043906     -0.027192     -0.050781
Ti	      2.12797     10.76407     12.51063        -0.062429      0.004384     -0.073555
Ti	      2.25054     21.20122     18.96606         0.059221     -0.005658      0.080358
O	      2.13901     16.98228     16.72048        -0.034082     -0.015976     -0.039015
O	      2.22001     19.07959     18.81213        -0.004848      0.003008     -0.008468
O	      2.12944      6.39787      6.30454        -0.001109     -0.011193     -0.016074
O	      2.13594      8.52896      8.39704        -0.001908     -0.000110      0.002006
O	      2.14408     10.66082     10.48973         0.000033      0.012540      0.020732
O	      2.16168     12.88521     12.65909         0.006965     -0.004743      0.006751
O	      2.24359     14.98645     14.75397         0.033094      0.015605      0.034625
