# total energy = -138.66770319 eV
 
CRYSTAL
PRIMVEC
0.025236 6.270678 6.222264 
6.204269 2.059988 8.350905 
4.138301 4.185966 4.157351 
PRIMCOORD
18 1
Li	      0.08864      0.04199      0.12221        -0.012357     -0.008803      0.018372
Li	      6.19124     10.39808     12.43907         0.000706     -0.000470     -0.001551
Li	      4.05415      6.12076      6.18408         0.001696     -0.014302      0.000592
Li	      2.12080      4.35207      6.27209        -0.003104      0.017934     -0.000067
Ti	      8.30419     10.42566     14.64270         0.042862     -0.055917      0.075399
Ti	      2.03316      2.18753      4.10539        -0.023554      0.078225     -0.023266
Ti	      8.26263      6.23739     10.47516        -0.004868      0.021067     -0.009535
Ti	      6.27514      6.23674     12.42524         0.011400     -0.003114     -0.042382
Ti	      8.24112      8.24415     12.43293        -0.047273     -0.078028     -0.046075
O	      2.02098      2.04539      2.08282        -0.003992     -0.008926      0.005368
O	      4.17043      8.31395     10.35256        -0.009327     -0.006680     -0.015589
O	      6.20373      8.30490     12.47033         0.016855      0.005802     -0.015415
O	      2.18887      4.20159      4.23588        -0.001061      0.030900     -0.015968
O	      4.13769      4.11077      6.31392         0.014337     -0.010228      0.100574
O	      6.21727      4.25832      8.34563         0.017012     -0.008556     -0.001386
O	      8.28183      8.45612     14.47891        -0.004267      0.064009     -0.035282
O	      4.11754      6.24084      8.33150         0.013735     -0.018059      0.000035
O	      6.21234      6.26119     10.37158        -0.008799     -0.004856      0.006178
