# total energy = -138.39197109 eV
 
CRYSTAL
PRIMVEC
0.058878 18.472399 18.639040 
2.112206 4.099384 6.213542 
2.132316 8.196576 6.205460 
PRIMCOORD
18 1
Li	      4.20526     12.29202     12.43593         0.001913      0.019602     -0.004096
Li	      4.19490     16.40134     16.62073         0.004981      0.007339     -0.011100
Li	      0.08954      8.21130      8.22941        -0.007108     -0.000020      0.002138
Li	      0.08908     12.31978     12.40631        -0.019822     -0.012316      0.012160
Ti	      0.02876      2.05318      2.05322        -0.032818     -0.006976     -0.013341
Ti	      2.15534     14.35353     12.42292        -0.006202      0.008522     -0.007852
Ti	      4.24913     22.56302     22.78649         0.049997     -0.016313      0.024473
Ti	      4.25970     26.66650     26.89017         0.014021     -0.002918     -0.054376
Ti	      0.08112     16.41918     16.59390        -0.006891      0.009751      0.058872
O	      2.21300     20.51836     20.67622        -0.009775     -0.006628      0.011593
O	      2.12476     22.56767     22.80847         0.020892      0.005576     -0.009693
O	      2.11631      6.14801      6.22527        -0.024585     -0.001316     -0.002125
O	      2.12548      8.20067      8.28567         0.017977      0.010950     -0.001388
O	      2.14433     10.25525     10.34143         0.013335     -0.010255      0.019127
O	      2.14443     12.30554     12.42532        -0.005477      0.010584     -0.003700
O	      2.13640     14.35922     14.50562        -0.005478      0.001131     -0.023577
O	      2.15685     16.41422     16.55631        -0.021687     -0.005358      0.009068
O	      2.17357     18.46673     18.61702         0.016727     -0.011354     -0.006182
