# total energy = -156.24338800 eV
 
CRYSTAL
PRIMVEC
0.034627 10.296284 10.359013 
4.251086 8.191586 12.493149 
4.218776 4.116353 4.162890 
PRIMCOORD
20 1
Li	      4.19005     14.36198     14.59193        -0.001524      0.021475     -0.014691
Li	      4.13629      6.09298      6.26414        -0.006994     -0.020863     -0.003855
Li	      2.24419     12.41674     14.50678         0.008440      0.022086      0.002516
Li	      2.19037      4.14749      6.17916         0.001740     -0.022415      0.014174
Ti	      2.20060     10.31023     12.45413         0.112860      0.043082      0.028761
Ti	      4.17948      8.19909      8.31706        -0.113311     -0.042569     -0.027598
Ti	      4.27637     10.35473     10.48653         0.002116      0.047483      0.020635
Ti	      2.02848      6.22745      8.28488        -0.055597     -0.013405     -0.039645
Ti	      4.35230     12.28244     12.48620         0.055374      0.015909      0.046060
Ti	      2.10425      8.15469     10.28412        -0.003192     -0.050132     -0.024392
O	      2.18046     12.35181     12.45859         0.001788      0.002181     -0.001543
O	      4.27499     12.33190     14.55976         0.031101      0.000823      0.013562
O	      6.28886     12.37752     16.58337        -0.024250      0.054459     -0.022337
O	      4.34251     14.32367     16.68069         0.024802     -0.054264      0.023122
O	      6.35666     14.36916     18.70443        -0.031683     -0.001102     -0.013481
O	      4.20002      6.15741      8.31238        -0.002033     -0.002458      0.001880
O	      6.40635     16.53627     20.66703         0.005079     -0.037888      0.017948
O	      4.21810      8.24495     10.40579         0.011424      0.031703     -0.013079
O	      2.16262     10.26465     10.36559        -0.011568     -0.031103      0.012205
O	      4.22515     10.16526     12.59680        -0.004573      0.036997     -0.020242
