# total energy = -155.83821754 eV
 
CRYSTAL
PRIMVEC
-0.002745 2.096509 2.096324 
4.160933 -0.004852 4.192182 
10.445464 10.524134 -0.055300 
PRIMCOORD
20 1
Li	      6.28443      4.23871      6.23904        -0.010300     -0.019308      0.019483
Li	      8.25541      8.33904      0.03832         0.014360     -0.003251      0.003106
Li	      4.13121      2.06149      2.12512         0.012461      0.022055     -0.020316
Li	      8.44530      8.49017      4.07714        -0.012804      0.003246     -0.001170
Ti	     10.44779     10.49609     -0.02263         0.057151     -0.039434      0.030238
Ti	      4.34341      6.30624      2.07947         0.016586     -0.042948      0.037403
Ti	      6.30417      8.35518      2.11532         0.005650      0.061986     -0.029714
Ti	     12.35704     10.52490      2.03722        -0.014758      0.036784     -0.037925
Ti	      6.25573      4.23778      2.04252        -0.059212      0.033968     -0.028375
Ti	     10.39633      8.47434      2.00062        -0.003633     -0.057345      0.030676
O	      2.05563      2.06106      2.12943        -0.027096     -0.016308      0.025093
O	      4.19963      4.24535      2.04268         0.027843      0.018771     -0.024920
O	      6.48281      6.29204      2.08330        -0.003032     -0.012331      0.005888
O	      8.35043      8.41461      2.05811         0.001724      0.002827     -0.003614
O	     10.21807     10.53788      2.03274        -0.005818      0.013778     -0.006379
O	      4.07750      2.02414      4.26174        -0.029107     -0.042316      0.049681
O	      6.33852      4.27707      4.10204         0.028649      0.044213     -0.049618
O	      8.36285      6.28987      4.18512        -0.013963     -0.045173      0.030727
O	     10.43096      8.41256      4.15413         0.001422      0.000458     -0.001566
O	     12.49885     10.53630      4.12314         0.013878      0.040327     -0.028699
