# total energy = -114.74422338 eV
 
CRYSTAL
PRIMVEC
-0.077830 8.388634 8.389093 
4.115698 4.191927 8.364306 
4.154615 2.083563 2.083734 
PRIMCOORD
16 1
Li	      4.13210      4.21368      8.38571         0.006915      0.004836      0.005909
Li	      6.15389     10.47058     12.55851        -0.006351      0.000108      0.000624
Li	      8.24935      8.37296     12.54507         0.003787      0.002737      0.002742
Li	      8.20470     10.44561     14.61793         0.010639      0.000223     -0.000045
Li	      6.18355      6.27579      8.36420         0.004428      0.000773     -0.002689
Ti	      2.05700      2.15014      4.13064         0.002101      0.078214     -0.094172
Ti	      4.05680     10.48575     14.65620        -0.001642     -0.006975     -0.006989
Ti	      6.17273      8.32312     10.51326         0.000620     -0.092072      0.079891
O	      6.21701      6.34851     10.52025         0.006333      0.102982      0.104796
O	      3.95575     10.46810     12.66732        -0.112708      0.014160      0.083405
O	      6.12411      8.31566     12.48755         0.022395     -0.106489     -0.108161
O	      4.23582      4.08595      6.28235         0.085848     -0.105023      0.003561
O	      6.06252     10.51352     14.68529        -0.095161      0.041332      0.041254
O	      3.99491      6.38733      8.35927        -0.111452      0.082567      0.014702
O	      6.20433     12.53737     16.70926         0.097921     -0.021961     -0.020943
O	      4.19657      8.39098     10.36586         0.086327      0.004587     -0.103886
