# total energy = -114.19609420 eV
 
CRYSTAL
PRIMVEC
-0.007911 8.331315 8.282023 
4.053734 2.078637 6.211645 
4.052915 2.078648 2.070587 
PRIMCOORD
16 1
Li	      4.05092      2.07802      2.07255         0.002267      0.002265      0.000900
Li	      2.02203      8.36669     10.35546         0.008204      0.037130      0.000207
Li	      6.07549      4.12136      6.21291        -0.007505     -0.037756     -0.000127
Li	      6.08098      6.19911      8.28338        -0.016796     -0.035982      0.002393
Li	      2.01767      6.28916      8.28494         0.017089      0.037382     -0.002781
Ti	      4.07849      4.06580      4.14180         0.488175     -0.109583      0.007143
Ti	      4.04883      6.24466      6.21362        -0.001411     -0.002971     -0.000138
Ti	      4.01982      8.42108     12.42636        -0.486250      0.114103     -0.006487
O	      1.82972      2.06948      2.07232        -0.470671     -0.013608     -0.003585
O	      4.05284      2.07887      4.14307         0.000181      0.001304      0.000972
O	      1.95126      4.14986      4.14262        -0.072955     -0.007394      0.000513
O	      3.99551      4.15934      6.21267        -0.013034      0.039490      0.006610
O	      6.14735      8.33903     12.42575         0.075140      0.005241     -0.002419
O	      4.04933      6.24406      8.28413        -0.000236      0.001896      0.000559
O	      6.26877     10.41880     14.49600         0.465529      0.012694      0.002831
O	      4.10296      8.32957     10.35563         0.012271     -0.044211     -0.006591
