# total energy = -91.57600149 eV
 
CRYSTAL
PRIMVEC
0.000050 2.082915 2.084509 
6.112551 0.017240 -2.101686 
-2.036956 6.331437 -4.249646 
PRIMCOORD
16 1
Li	      2.11372      2.18094     -0.09483        -0.002899      0.028149     -0.029022
Li	      3.93455      2.18101     -2.18396        -0.022503      0.010975     -0.007481
Li	      2.13997      4.18157     -2.09573         0.012916     -0.032458      0.026164
Li	      3.98849      4.07774     -4.08000        -0.004210     -0.037294      0.034481
Mn	      0.00684      0.02094     -0.01473         0.025179      0.047299     -0.050943
Mn	      0.00013      4.24512     -0.08048         0.015934     -0.016555      0.025095
Ni	      0.03799      6.29881     -2.13171        -0.060647     -0.074151      0.088055
Ni	      2.01703      6.32618     -4.24003         0.008790      0.026132     -0.028283
O	     -0.02633      4.18966     -2.10952        -0.001588     -0.035058      0.037516
O	      0.00610      2.03118      0.06224         0.002134     -0.047630      0.025625
O	      4.09810      6.49519     -4.40926        -0.009707      0.032303     -0.025137
O	      4.23154      4.19755     -2.11731         0.007299      0.007615      0.006103
O	     -0.09104      6.27517     -4.18824        -0.109456      0.097712     -0.105373
O	      4.18757      2.02730      0.06471         0.038374      0.061837     -0.072576
O	      2.01692      6.41870     -2.25135         0.135016     -0.061231      0.064817
O	      1.88367      2.12591     -2.12606        -0.034633     -0.007645      0.010958
