# total energy = -93.37502588 eV
 
CRYSTAL
PRIMVEC
-2.061428 4.226560 -2.060713 
2.029103 4.193099 2.027404 
2.046900 0.017338 -6.133921 
PRIMCOORD
16 1
Li	      0.02910      4.22454     -4.15181         0.003182      0.007700      0.001916
Li	      1.98625      4.22192     -6.10480        -0.011962      0.007293      0.001276
Li	      0.04040      2.12137     -2.10291         0.013111     -0.009223     -0.003015
Li	      1.99748      2.11659     -4.05589        -0.003573     -0.006637     -0.001695
Mn	     -2.05940      4.22679     -2.06227         0.009000      0.009702     -0.017310
Mn	     -0.02253      6.32394     -2.07231        -0.006976     -0.008681      0.015108
Ni	      2.03490      6.32278     -4.12880         0.041005      0.000770     -0.040713
Ni	      2.02093      4.21214     -2.05150        -0.042734     -0.001334      0.041701
O	     -0.01595      4.18424     -6.27603         0.108337      0.119346     -0.045907
O	      1.89860      6.26651     -2.07561        -0.045442      0.106180      0.103303
O	      2.15707      4.26838     -4.10470         0.045601     -0.105927     -0.104044
O	      2.01431      4.03378      0.05205        -0.001787     -0.004181      0.105840
O	     -0.01884      6.38408     -3.99250        -0.108279     -0.118417      0.045981
O	     -0.00564      6.48338     -0.09854         0.001233      0.004840     -0.103186
O	     -0.08436      4.38624     -2.04850        -0.116794      0.008949      0.010162
O	      0.06408      1.93784     -0.02551         0.116078     -0.010380     -0.009416
