# total energy = -150.32049045 eV
 
CRYSTAL
PRIMVEC
-0.010291 10.550536 10.299923 
4.178869 6.344701 10.299431 
4.177383 6.343871 6.178798 
PRIMCOORD
20 1
Li	      0.16341     10.50453     10.30137         0.023938     -0.012325      0.000217
Li	      6.10394     16.83531     18.54009        -0.011413     -0.024340     -0.000181
Li	      6.21955     18.85253     20.60021         0.001819      0.007382      0.000318
Li	      4.33128     14.92049     18.54103         0.001034      0.003538      0.000309
Li	      6.18380     14.85336     16.47988        -0.020026      0.022738      0.000219
Ti	      4.19968      8.49796     12.36077         0.019780      0.023793      0.000181
Ti	      4.02741     10.49592     10.30069        -0.339290      0.000177      0.000475
Ti	      2.11708      4.23150      6.18205         0.053721      0.015369      0.000849
Ti	      8.27653     19.07452     22.66026        -0.044992     -0.017082      0.001177
Ti	      2.16813      6.36769      8.24005         0.088490      0.028886      0.002531
O	      6.24585     19.03903     22.66056        -0.003307      0.026089      0.000706
O	      4.17315     12.64815     14.42082         0.017908     -0.007153     -0.001671
O	      6.22089     10.58901     14.42081        -0.025966      0.028508     -0.002459
O	      4.11883     14.71739     16.48100        -0.051836     -0.062010      0.001735
O	      6.25938     12.71141     16.47967        -0.002986     -0.005514      0.000103
O	      4.11261      6.41896      8.24049        -0.144219      0.034116     -0.001633
O	      2.18856      8.35512      8.24133         0.085852     -0.100909     -0.003337
O	      4.22559      8.47010     10.30080         0.000018      0.033520      0.000886
O	      2.17529     10.52407     10.30090         0.314879      0.002389      0.000714
O	      4.12154     10.60492     12.36107         0.036598      0.002828     -0.001139
