# total energy = -148.68612234 eV
 
CRYSTAL
PRIMVEC
-0.039811 14.136715 10.154137 
3.786236 2.715744 6.134969 
3.730491 8.398675 6.133710 
PRIMCOORD
20 1
Li	      5.73338     22.20096     18.32759         0.006013      0.000993      0.009610
Li	      3.84978      8.61943     10.11569         0.002567     -0.007958     -0.000443
Li	      5.58676     13.65495     12.25899         0.004493     -0.015794     -0.010294
Li	      1.88917      8.84804      8.17628         0.001521      0.013538     -0.001021
Li	      3.76895     14.40993     14.23261        -0.009737     -0.006476     -0.003085
Ti	      3.69724      8.13550      6.18937         0.079364      0.036025      0.074652
Ti	      3.69217      5.90529      8.18893        -0.105792      0.024475      0.036691
Ti	      1.94159      3.28793      4.06723         0.028435      0.508789      0.010764
Ti	      3.75597     16.38676     12.22226         0.059828     -0.368397      0.041448
Ti	      5.32398     19.09637     16.37290        -0.073863     -0.114126     -0.059234
O	      5.70844     19.88775     18.25770         0.044829     -0.040869      0.001633
O	      3.69634     16.52477     14.24227        -0.062799      0.003954     -0.040545
O	      1.93647      5.09450      4.04725         0.000809     -0.523266     -0.002713
O	      3.70646     20.30494     16.27297         0.053393      0.111645      0.030649
O	      5.59756     11.50805     12.25177        -0.038003     -0.114947     -0.034348
O	      3.63616      7.85959      8.16822        -0.006236     -0.132524     -0.097183
O	      1.82721     10.89860      8.26384         0.115486      0.058973      0.074558
O	      3.81357     10.87218     10.11604         0.056907      0.029669     -0.015582
O	      5.56412     17.16718     16.38671        -0.137448      0.079222     -0.014750
O	      3.83311     14.57470     12.20682        -0.019767      0.457073     -0.000805
