# total energy = -150.67015898 eV
 
CRYSTAL
PRIMVEC
-0.006438 4.145979 4.192435 
10.369848 2.094110 12.538165 
6.225899 4.151848 6.271797 
PRIMCOORD
20 1
Li	      6.19799      8.25228     10.44595        -0.000279     -0.007392      0.004406
Li	      8.46721      4.25626     12.61442         0.011272     -0.003636     -0.014758
Li	      6.15932      6.24361      8.43451         0.014681     -0.011575      0.015267
Li	      8.26304      6.23252     10.47584        -0.011041      0.007342     -0.013576
Li	     10.39283      6.14712     12.49797         0.007393      0.009088      0.005185
Ti	      2.13351      4.22644      6.20596         0.026146      0.126774     -0.084360
Ti	      4.08780      4.20145      8.29499        -0.017808      0.103912     -0.035403
Ti	     12.43457      8.29669     16.76788        -0.072567      0.030703      0.121654
Ti	     12.38082      6.19745     14.59088         0.007334     -0.130044     -0.027912
Ti	     14.50976      6.19206     16.79419        -0.006632     -0.116983      0.052831
O	     12.42332      4.18035     14.62682        -0.012931      0.010132     -0.008827
O	      4.13080      6.22979      8.36187        -0.005319     -0.002396      0.006776
O	      6.22595      6.17795     10.54943        -0.021525     -0.025201      0.050929
O	      8.21475      6.31044     12.63543        -0.029488     -0.000986      0.029740
O	     10.36560      6.24610     14.61250         0.035170      0.034302     -0.009953
O	     12.41901      6.18978     16.66139         0.055269      0.008395     -0.041665
O	      4.18816      4.16248      6.27908        -0.049730     -0.003711      0.006778
O	      6.22799      4.14440      8.37033        -0.017102      0.007516     -0.001782
O	      8.26251      4.16620     10.46386        -0.001104     -0.040312     -0.004140
O	     10.47622      4.14393     12.39808         0.088261      0.004072     -0.051191
