# total energy = -126.12431395 eV
 
CRYSTAL
PRIMVEC
0.000671 2.101836 2.104464 
17.883280 -0.360064 19.302736 
5.981446 2.083381 4.229007 
PRIMCOORD
18 1
Li	      5.98172      1.87987      4.44017         0.026479      0.000346     -0.016294
Li	      7.87126      1.85734      6.56437        -0.014378      0.017667     -0.020819
Li	      6.05751      2.16892      8.35034         0.013870     -0.017930      0.019452
Li	      7.94726      2.14594     10.47373        -0.023813     -0.001174      0.015688
Li	      9.91315      0.01992     10.49761        -0.011679     -0.004572      0.009241
Li	     21.89924      3.64535     23.71855         0.012368      0.005086     -0.010613
Ti	      9.95557      4.10399     10.62204         0.000392     -0.003116      0.002544
Ti	     11.83788     -0.19545     12.81294        -0.169038      0.111585     -0.113806
Ti	     19.97505      3.85726     21.40026         0.165181     -0.114152      0.118583
O	     19.88320      1.93273     21.21400         0.008108      0.145319     -0.147645
O	      3.96605      1.95788      4.35859         0.004186     -0.079340      0.072659
O	      5.90349      2.04214      6.37498        -0.140088      0.005318      0.004617
O	      8.02550      1.98357      8.53904         0.138112     -0.007931     -0.006127
O	      9.96309      2.06773     10.55563        -0.005808      0.083232     -0.074273
O	     11.92904      1.72951     12.99979        -0.007433     -0.143596      0.147789
O	     13.86723      1.72123     15.10916        -0.045572     -0.040606      0.048920
O	     15.90602      1.83069     17.10655         0.004622      0.001119     -0.000007
O	     17.94524      1.94107     19.10463         0.044492      0.042743     -0.049910
