# total energy = -142.28314326 eV
 
CRYSTAL
PRIMVEC
-0.122727 11.046189 14.079993 
4.170757 2.639697 7.966045 
4.263067 4.504778 5.465982 
PRIMCOORD
20 1
Li	      0.57613     10.47059     13.47997        -0.009500     -0.012775     -0.007929
Li	      4.23589      4.63646      9.26238        -0.011698     -0.000003      0.000582
Li	      4.30932      7.11528      9.16731         0.019292      0.013426      0.011562
Li	      3.60729     10.40105     13.54130        -0.008590     -0.016233     -0.012550
Li	      4.28948     12.06632     18.70308         0.004638      0.040616      0.031824
Li	      3.68725      7.38806     13.24295         0.019057     -0.022460     -0.015716
Ti	      2.33199     11.37971     16.17134        -0.298162      0.334376      0.237809
Ti	      2.29227      3.33966      6.27664         0.190097     -0.066572     -0.044461
Ti	      5.80493      9.33762     14.77625        -0.201488     -0.186816     -0.145941
Ti	      5.82917     11.38012     16.30097         0.115507      0.065951      0.052419
O	      5.48014      6.53485     12.67344         0.118096      0.045121      0.035639
O	      3.81151     13.69603     19.90112        -0.283898      0.107776      0.070313
O	      2.53867      4.84240      7.40681        -0.077993     -0.045085     -0.034578
O	      1.08658      1.26068      2.73258         0.578970     -0.387487     -0.267515
O	      0.95900      6.77482      8.79004        -0.004316      0.005436      0.004458
O	      3.15261      5.93150     10.18912        -0.107059      0.052699      0.034271
O	      6.23981     11.37255     18.25772        -0.057225     -0.082749     -0.063988
O	      4.10791      8.77268     14.29255         0.269157      0.117263      0.095124
O	      6.27561     14.07304     22.22153         0.083726      0.212020      0.162026
O	      3.90657     12.11146     16.77546        -0.338610     -0.174502     -0.143349
