# total energy = -156.24398629 eV
 
CRYSTAL
PRIMVEC
0.033463 10.298685 10.360403 
4.249551 8.194528 12.493333 
4.218084 4.117222 4.163126 
PRIMCOORD
20 1
Li	      4.18706     14.36523     14.58953         0.000679      0.013665     -0.006552
Li	      4.13262      6.08788      6.26553        -0.004548     -0.008886     -0.014424
Li	      2.24245     12.42401     14.50313         0.004363      0.004706      0.018401
Li	      2.18860      4.14514      6.18057        -0.001453     -0.015318      0.005468
Ti	      2.19843     10.31120     12.45381         0.106986      0.044654      0.021599
Ti	      4.17606      8.19838      8.31628        -0.106193     -0.041883     -0.023875
Ti	      4.27297     10.35418     10.48550         0.006682      0.051597      0.029469
Ti	      6.24406     10.34382     12.44562        -0.059270     -0.011010     -0.036014
Ti	      4.34919     12.28348     12.48711         0.060124      0.011490      0.035294
Ti	      2.10203      8.15574     10.28370        -0.006743     -0.049156     -0.027858
O	      2.17958     12.35388     12.45852        -0.014683     -0.010565     -0.004682
O	      4.27186     12.33261     14.56010         0.030967      0.006700      0.006116
O	      6.28611     12.37884     16.58110        -0.030473      0.060026     -0.006998
O	      4.33820     14.32576     16.68193         0.031097     -0.059132      0.005739
O	      6.35268     14.37185     18.70289        -0.029852     -0.006674     -0.007035
O	      4.19552      6.15606      8.31108         0.013604      0.008663      0.004078
O	      6.40202     16.53752     20.66630         0.006811     -0.027749      0.015804
O	      4.21594      8.24611     10.40687         0.009785      0.018179     -0.028159
O	      2.15894     10.26389     10.36307        -0.009115     -0.019369      0.027162
O	      4.22252     10.16695     12.59619        -0.008768      0.030061     -0.013533
