# total energy = -150.83023108 eV
 
CRYSTAL
PRIMVEC
-0.039710 10.377747 10.310656 
4.141765 8.278717 12.383486 
4.159004 4.137548 4.124923 
PRIMCOORD
20 1
Li	      4.09050     14.43126     14.45070         0.006210      0.020855     -0.001016
Li	      4.16892      6.19038      6.20413        -0.006120     -0.016727     -0.005570
Li	      2.10954     12.58977     14.35582        -0.012934      0.008492      0.003811
Li	      2.06498     14.49438     16.49205         0.003125     -0.009631      0.006351
Li	      6.17262     12.43406     14.50166         0.006914      0.005286     -0.008478
Ti	      6.23889     14.48489     16.52590         0.058047     -0.042868      0.036346
Ti	      4.09585      8.24794      8.21449        -0.013962     -0.018046     -0.052584
Ti	      4.14775     10.34986     10.35433         0.004809      0.018178      0.025018
Ti	      1.96912      6.28741      8.18076        -0.061933     -0.013135     -0.075130
Ti	      4.19420     12.40016     12.41073         0.036547      0.032833      0.046904
O	      6.25079     20.67855     24.68816        -0.002139     -0.031982     -0.003212
O	      4.11671     12.41803     14.43901         0.005090      0.006204      0.004312
O	      6.08547     12.50562     16.50304        -0.040056      0.064514      0.002067
O	      4.17469     14.45019     16.52788         0.011557     -0.044367      0.019044
O	      6.19370     14.50954     18.55633        -0.006647     -0.008075     -0.006149
O	      4.09437     16.55306     18.55394         0.019261      0.000751     -0.005414
O	      6.20882     16.61856     20.62310         0.018996     -0.021641      0.001924
O	      4.12756      8.30486     10.28510        -0.001914      0.032149     -0.012769
O	      6.23234     18.72077     22.74376         0.008019      0.010895      0.021074
O	      4.09649     10.27977     12.45668        -0.032870      0.006315      0.003470
