# total energy = -91.90643201 eV
 
CRYSTAL
PRIMVEC
4.102983 0.000022 0.000011 
0.000024 4.114475 -4.196382 
0.000049 6.107800 2.034903 
PRIMCOORD
16 1
Li	      4.10077      4.11183     -0.02842        -0.001101     -0.009570      0.018708
Li	      4.10062      8.20472     -0.10821        -0.000931      0.038363      0.002816
Li	      2.04917      4.06250     -2.07413         0.001450     -0.039496     -0.002129
Li	      2.04926      8.15530     -2.15427        -0.000021      0.010190     -0.018708
Mn	      4.10071     10.12796     -2.12638        -0.000030     -0.085332      0.046751
Mn	      2.04914      2.13920     -0.05606        -0.000472      0.087393     -0.045886
Ni	      2.04914      6.08221     -0.10041         0.000913     -0.034079     -0.052408
Ni	      4.10057      6.18497     -2.08191         0.002161      0.034603      0.051464
O	      2.04917      3.99594     -0.06965        -0.000142     -0.174525      0.022695
O	      4.10069      6.08615      0.02521        -0.000862     -0.009085      0.147390
O	      2.04915      6.18107     -2.20760        -0.000310      0.010089     -0.147939
O	      4.10072      8.27130     -2.11278        -0.001041      0.173659     -0.023493
O	      2.04916      1.99858     -1.91585        -0.000332      0.116745      0.093708
O	      4.10067      4.16085     -2.30143         0.000298     -0.116383     -0.094299
O	      2.04909      0.09424     -0.05559         0.000538     -0.017702      0.117003
O	      4.10065      1.95073      0.03463        -0.000118      0.015132     -0.115674
