# total energy = -187.13703551 eV
 
CRYSTAL
PRIMVEC
-0.001735 3.836483 4.005000 
17.392277 -0.006606 14.021842 
17.390145 3.829736 14.022013 
PRIMCOORD
28 1
Li	     19.55136      3.82355     16.03383        -0.001164     -0.000515     -0.000833
Li	      5.37464      3.83209      8.01936        -0.002827     -0.000493     -0.002369
Li	     27.17811      3.82809     22.03565         0.026738     -0.000199     -0.003826
Li	     13.07581      3.83817     13.99800         0.085949     -0.002241      0.007604
Li	     14.92421      3.83031     16.01979        -0.018867     -0.006554      0.000818
Li	     16.73036      5.73870     16.03806        -0.080959      0.001748     -0.003953
Li	      2.63513      1.91194      4.01040        -0.025731      0.000211      0.001880
Li	     24.43701      5.74437     22.04049         0.001796      0.000659     -0.003290
Li	     10.26411      1.91660     10.00167        -0.004244      0.000582      0.005303
Li	     32.27476      5.73986     28.03737         0.026961      0.005293      0.001430
Ti	     17.42652      3.82040     14.07291         0.317666      0.003028      0.009949
Ti	      7.65718      3.83318     10.03908         0.577824      0.000709     -0.007433
Ti	     22.15445      5.74326     20.05554        -0.571556     -0.000218     -0.006845
Ti	     12.38638      1.91991     11.95933        -0.337038     -0.004051     -0.010481
O	     20.35778      5.74243     20.03275         0.553511     -0.000653      0.009545
O	     22.34393      1.90674     18.02410         0.027405      0.000845     -0.015833
O	     24.55188      1.90808     20.02746         0.014138     -0.000143      0.005359
O	     27.96111      5.74640     26.03360         0.389045      0.002951     -0.012131
O	     12.53234      5.75720     14.01810         0.014152     -0.005196      0.054460
O	     14.62781      1.91141     12.01366         0.060868      0.011020      0.006304
O	     16.99279      1.90132     14.01603         0.101716      0.011347      0.013091
O	     19.24198      3.82359     18.02921        -0.384571     -0.002486      0.014459
O	     22.65303      3.82529     20.02857        -0.008423      0.000364      0.007963
O	     24.86151      3.82657     22.02731        -0.026761     -0.000865     -0.013526
O	      9.45425      3.83420     10.01313        -0.566159      0.000149      0.005974
O	     12.81814      3.83882     12.01531        -0.092270     -0.009985     -0.010622
O	     15.18394      3.82872     14.01711        -0.066550     -0.010744     -0.005888
O	     17.27696      3.81949     16.01862        -0.010651      0.005437     -0.047109
