# total energy = -51.24439237 eV
 
CRYSTAL
PRIMVEC
-0.000395 2.076504 2.076708 
4.121509 -0.052982 4.205582 
6.153231 4.149911 2.078616 
PRIMCOORD
8 1
Li	     10.19573      4.10537      6.27191        -0.059914     -0.013587      0.013619
Li	      2.14663      2.04491      4.18147         0.051700      0.014062     -0.014485
Li	      4.10483      4.13450      4.16769         0.003481     -0.001474      0.001886
Ti	      6.15737      2.03505      4.19044        -0.028803      0.002649     -0.001940
O	      2.05028      2.17142      1.97864         0.019883      0.096265     -0.097964
O	      8.11744      4.11281      6.26597        -0.063425     -0.004126     -0.002121
O	      4.22296      2.03475      4.18968         0.100370      0.004216      0.005671
O	      6.17194      4.02843      4.27339        -0.023292     -0.098006      0.095335
