# total energy = -50.51643787 eV
 
CRYSTAL
PRIMVEC
0.035291 4.063370 4.068810 
4.064288 0.034601 4.069496 
4.079599 4.078679 4.088839 
PRIMCOORD
8 1
Li	      4.09995      4.10066      8.13613        -0.000450     -0.006031      0.010157
Li	      8.16059      6.14501     10.19211         0.005923     -0.001943      0.002151
Li	      6.12835      6.12650      8.16028        -0.003802      0.003781     -0.006939
Ti	      2.07499      4.07723      6.10469         0.044551     -0.010702      0.002645
O	      2.03791      2.03969      2.04583         0.000077      0.019055     -0.005209
O	      4.07140      2.05805      4.07928        -0.000682     -0.004472     -0.000969
O	      2.05649      4.07078      4.07906        -0.004660      0.002625     -0.004966
O	      4.08408      4.08879      6.11287        -0.040956     -0.002313      0.003130
