# total energy = -143.39047454 eV
 
CRYSTAL
PRIMVEC
0.023282 6.431047 6.431903 
6.305708 2.282543 8.460270 
6.305687 4.341373 6.401145 
PRIMCOORD
18 1
Li	      6.30412      2.28525      8.46113         0.000682     -0.002053     -0.002001
Li	     10.45613     10.99972     17.17654         0.002371     -0.018908     -0.017612
Li	      2.17829      2.05887      4.11561        -0.004623      0.017559      0.019156
Ti	      2.21853      6.44329      8.49967         0.067467     -0.063766     -0.054832
Ti	      6.19319      6.48464      8.54192        -0.028248      0.017726      0.022941
Ti	     10.41524      6.61477     12.79265        -0.054088      0.067754      0.060325
Ti	      6.44043      6.57407     12.75134         0.037048     -0.012698     -0.018092
Ti	      8.40069      8.59366     12.70973        -0.028468      0.019389      0.025739
Ti	      4.23037      4.46479      8.58368         0.029881     -0.014205     -0.024015
O	      8.30982      4.36571     10.54081         0.028136      0.000736      0.000357
O	      4.32329      8.69263     10.75187        -0.027468     -0.001420     -0.001451
O	      6.26973      8.66576     12.78373        -0.020962     -0.019558     -0.021292
O	      8.44446      6.45508     12.63036         0.031110      0.012484      0.018894
O	      4.26621      4.37886      6.43794         0.048557     -0.014317     -0.015644
O	      6.36249      4.39343      8.50981         0.019762      0.016464      0.020885
O	      8.36549      8.67943     14.85476        -0.052073      0.014954      0.018245
O	      4.19077      6.60425      8.66393        -0.048446     -0.020156     -0.030458
O	      6.31716      6.52922     10.64662        -0.000636      0.000013     -0.001145
