# total energy = -143.36794040 eV
 
CRYSTAL
PRIMVEC
-0.000688 2.070551 2.070472 
6.339639 -0.095352 6.305013 
10.537419 6.208711 4.141043 
PRIMCOORD
18 1
Li	     10.50824      6.19578      4.15041         0.018809     -0.001108      0.001375
Li	      4.26076      4.18876      4.08903         0.021025      0.020621     -0.021108
Li	     12.52707      3.94992      8.46636         0.004589      0.016944     -0.018210
Ti	      8.33258      2.02276      6.25190        -0.025179      0.041464     -0.040797
Ti	     10.75495      6.21399      8.27228         0.115441     -0.018993      0.020402
Ti	     12.61580      6.14635      6.27096         0.019654     -0.014836      0.021236
Ti	     14.71326      6.15109      8.33430        -0.127202     -0.034207      0.038794
Ti	      6.44395      4.07147      6.27565         0.037795      0.031512     -0.027715
Ti	      8.36732      4.10917      4.16852        -0.058318     -0.007608     -0.003006
O	      2.10039      2.08607      2.05106         0.028078     -0.001482     -0.000605
O	     10.49799      4.14743      8.26851        -0.039602      0.024899     -0.022521
O	     12.74387      6.07540      8.41261         0.009982     -0.000962      0.003475
O	      4.25419      2.03246      4.17318         0.020901     -0.002225     -0.002940
O	      6.32830      4.09267      4.18378         0.059279     -0.039596      0.035525
O	     14.74762      6.09644     10.46005        -0.023944     -0.012387      0.013415
O	      6.23380      1.95949      6.31735        -0.051994      0.008196     -0.008311
O	      8.60361      4.10388      6.24216         0.029798      0.016960     -0.013402
O	     10.48996      6.22896      6.18792        -0.039112     -0.027192      0.024393
