# total energy = -161.30140459 eV
 
CRYSTAL
PRIMVEC
-0.043343 4.199346 4.188602 
10.481567 1.988029 12.575290 
4.178634 2.056316 2.096053 
PRIMCOORD
20 1
Li	     10.41710      2.02047     12.52202         0.006336      0.003731      0.009630
Li	      8.41230      4.11839      8.45656        -0.007848     -0.018816     -0.001172
Li	      6.27725      2.01026      8.33791         0.016926      0.006706      0.018721
Ti	      6.24288      6.14491      8.33052        -0.029052     -0.010211     -0.086220
Ti	      4.24546      4.16996      8.44089         0.035105      0.029307      0.068255
Ti	     10.34906      6.16810     12.52192        -0.044586     -0.031152     -0.108813
Ti	      8.47197      4.21349     12.62609         0.070777      0.032943      0.076538
Ti	      4.03007      4.12155      4.20869        -0.040642     -0.035268      0.019045
Ti	      6.27627      4.19862      6.37219         0.013344      0.054665      0.071396
Ti	      8.43553      1.98024     10.38292        -0.024217     -0.077940     -0.066607
O	     12.54984      4.06862     14.66980         0.006335      0.008846      0.021687
O	      4.18367      2.06044      4.19344         0.018177      0.002082     -0.004703
O	      6.30921      2.04799      6.26010        -0.003191      0.040311     -0.019405
O	      8.24280      6.31062     12.56376         0.011517     -0.001245      0.012421
O	     10.48614      6.16718     14.64688         0.020424      0.000403     -0.010180
O	     12.35819      6.19103     16.75763         0.020399     -0.005803     -0.012757
O	      4.15932      4.14215      6.31143        -0.003327      0.008423     -0.014285
O	      6.36115      4.04419      8.39855        -0.049397      0.014382     -0.007681
O	      8.37898      4.10193     10.51131        -0.010484     -0.009965      0.030782
O	     10.53185      4.06241     12.58383        -0.006595     -0.011400      0.003348
