# total energy = -160.71839717 eV
 
CRYSTAL
PRIMVEC
0.019913 10.621002 10.622790 
4.193408 4.276541 8.478210 
4.193558 6.376806 6.377583 
PRIMCOORD
20 1
Li	      4.22952      8.53328     12.73080        -0.024809      0.011949      0.015568
Li	      6.21564     12.85817     14.95966         0.009893      0.020713      0.018520
Li	      4.30244     12.67979     16.88226         0.021991     -0.011987     -0.016137
Ti	      8.34466     10.59865     14.79729        -0.091795      0.019448      0.024243
Ti	      6.28743     17.05492     19.15463         0.003670      0.026182      0.025625
Ti	      4.26827      6.40295     10.60390         0.111896      0.010820      0.006104
Ti	      6.25541      8.50919     10.60709        -0.033986     -0.071425     -0.066984
Ti	      2.17081      4.26806      6.36745         0.142640     -0.023121     -0.027147
Ti	      4.22685     10.63726     14.83683        -0.025097      0.021135      0.024816
Ti	      6.20053     14.94621     17.04695        -0.109231     -0.026848     -0.030173
O	      6.36688     17.04102     21.24101         0.069573      0.008573      0.010420
O	      4.19207     12.72800     14.82775        -0.017100      0.026352      0.024374
O	      6.28683      8.51014     12.70955        -0.002717     -0.010118     -0.009552
O	      4.20501     14.80532     16.90486         0.030609     -0.017784     -0.013118
O	      6.25816     10.66889     14.86961        -0.052548      0.017828      0.013094
O	      4.10610      6.38085      8.47987        -0.028534     -0.006508     -0.005314
O	      6.36018     12.86329     17.06395         0.035311      0.000361      0.003322
O	      4.14073      8.52745     10.62755        -0.037484      0.027640      0.023568
O	      6.36091     14.94555     19.14645        -0.001873      0.006658      0.004500
O	      4.24473     10.61974     12.71844        -0.000409     -0.029868     -0.025728
