# total energy = -156.20138031 eV
 
CRYSTAL
PRIMVEC
-0.004092 10.356615 10.441987 
4.178999 4.141552 8.353110 
4.178206 8.284529 8.352770 
PRIMCOORD
20 1
Li	      8.23201     12.42532     16.65742        -0.007504      0.001354     -0.014341
Li	      4.21536     12.42482     12.61719         0.024697      0.000324     -0.020261
Li	      4.17554     10.35416     14.59295         0.022949      0.000156      0.000308
Li	      6.23251     14.49771     16.73525        -0.023478      0.000685     -0.022609
Ti	      2.09549     10.35195     12.46263         0.013991      0.007166     -0.001442
Ti	      4.34106      6.21236     10.37806         0.012627      0.002669     -0.020230
Ti	      6.28473     10.35313     12.59002         0.129902      0.003312      0.040801
Ti	      6.22742     12.42606     14.67189        -0.007245      0.004058      0.029046
Ti	      8.29741     20.71071     25.05076        -0.067239      0.000039      0.043512
Ti	      6.21780     16.57038     18.80745        -0.044097     -0.013126     -0.101756
O	      2.27291     12.42345     12.54785        -0.048454      0.005735     -0.004163
O	      4.14548     12.42574     14.64277        -0.004700     -0.000551      0.026566
O	      6.27055     18.63808     22.96120        -0.046171      0.001486     -0.018784
O	      4.11742     14.49775     16.71916         0.027370     -0.000810      0.027253
O	      1.98745      6.21359      6.34072         0.032758     -0.008352     -0.002746
O	      4.17666     16.56900     18.77338         0.044582      0.000265      0.052044
O	      2.03806      8.28551      8.36122        -0.001735     -0.003896     -0.039789
O	      4.19227      8.28408     10.40306         0.044957     -0.008864     -0.024189
O	      6.30850     14.49788     18.74730        -0.036095      0.001141      0.075679
O	      4.21085     10.35244     12.46714        -0.067115      0.007208     -0.024898
