# total energy = -191.29172069 eV
 
CRYSTAL
PRIMVEC
0.002596 6.390416 6.372673 
8.288623 2.216352 10.537659 
4.145308 6.390954 6.373822 
PRIMCOORD
24 1
Li	      8.28971     12.67910     16.94606        -0.004802      0.000814     -0.007586
Li	     10.36507      8.65750     14.96048         0.001712      0.009147      0.009522
Li	      2.07719      4.26604      6.32765         0.003407      0.016924      0.026715
Li	      6.21988      4.32286     10.50721         0.001518     -0.018544     -0.016437
Ti	      4.14808      6.33419      6.51110         0.001822      0.048058     -0.014364
Ti	      6.21880     12.72403     14.82798         0.003380     -0.079245     -0.146010
Ti	     10.35435     12.85770     19.07388         0.040107      0.016046     -0.030738
Ti	      8.29661      4.36500     12.67605        -0.024962     -0.194237     -0.051568
Ti	      2.06717      2.20203      4.11431         0.031585     -0.002817      0.009111
Ti	      8.29577      8.49253     12.80379        -0.027444      0.084507      0.008771
Ti	      8.29677      6.53349     14.67055        -0.019261      0.041549      0.103099
Ti	      4.14881      4.38782      8.42659         0.001098      0.040472      0.051190
O	     10.36919     10.69867     18.89307        -0.009123      0.097261      0.050659
O	      4.14242      8.56194     10.65328         0.006972     -0.005293      0.003683
O	      6.22246      8.57768     12.67045        -0.011325     -0.015059     -0.016008
O	      8.29421      8.62156     14.84814         0.001907     -0.063743     -0.088303
O	     10.36795      6.55131     14.83970        -0.006198      0.006820      0.005091
O	      4.14904      4.23856      6.33857         0.003730     -0.047641     -0.018970
O	      6.21985      4.29160      8.46418         0.002258      0.044653     -0.024548
O	      8.29419     10.63023     16.92514         0.002303     -0.034072      0.015434
O	      2.07654      6.34438      6.40133         0.002783     -0.008655      0.026705
O	      4.14516      6.47303      8.64089        -0.004574     -0.018921     -0.011987
O	      6.21499      6.51457     10.56647        -0.005721      0.077217      0.075257
O	      8.28089      6.43864     12.51256         0.008826      0.004759      0.041281
