# total energy = -91.24242633 eV
 
CRYSTAL
PRIMVEC
4.017294 0.000253 0.000244 
-0.000188 -0.000034 -4.073225 
2.008785 8.536647 -2.036691 
PRIMCOORD
16 1
Li	      4.01677      4.44996     -4.07093        -0.002540      0.004894      0.000879
Li	      4.01680      8.40142     -4.07043        -0.002910     -0.027173      0.001883
Li	      4.01680      2.26734     -2.03409         0.001566      0.031105     -0.001519
Li	      4.01675      6.21834     -2.03369        -0.000625     -0.004407     -0.001715
Mn	      2.00834      8.48491     -2.03389        -0.000114     -0.039470     -0.002669
Mn	      2.00801      2.18358     -4.07099         0.000894      0.038981      0.000105
Ni	      2.00761      6.38097     -4.07077         0.001316     -0.127263      0.001106
Ni	      2.00855      4.28753     -2.03422        -0.001254      0.130430     -0.001673
O	      4.01713      4.25589     -2.03412         0.000981      0.003400      0.001896
O	      2.00793      6.50876     -2.03409         0.002615      0.152673     -0.002064
O	      4.01665      1.91198     -4.07068         0.002237     -0.045254      0.000111
O	      2.00812      4.15938     -4.07089        -0.000668     -0.150606      0.001184
O	      2.00794      0.22036     -4.07053         0.000632      0.037273     -0.000038
O	      4.01624      6.41317     -4.07079         0.003188     -0.007624      0.000297
O	      2.00804      8.41003     -4.07045        -0.000871      0.142176     -0.001010
O	      2.00861      2.25836     -2.03438        -0.004446     -0.139135      0.003228
