# total energy = -90.29372145 eV
 
CRYSTAL
PRIMVEC
0.000022 2.082811 2.082899 
14.363584 -0.119212 14.699199 
14.363585 1.997594 12.582297 
PRIMCOORD
14 1
Li	     14.18200      1.99658     12.58274        -0.012508     -0.001865     -0.002634
Li	      4.21142      2.04642      6.28116         0.100683     -0.000422      0.003310
Li	      6.15837      2.03106      8.38161        -0.000653     -0.004938      0.001194
Li	     22.45624      1.92894     20.97869        -0.089408     -0.001901      0.003759
Li	     12.48970      1.97870     14.68039        -0.002309      0.000550      0.002594
Ti	     16.37306      1.97773     14.68251         0.090983      0.000682      0.000698
Ti	     10.29561      1.99602     12.58194        -0.092914     -0.000071     -0.001687
O	     16.35785      1.96063     16.78225        -0.014387      0.001875     -0.001092
O	     18.22461      1.94391     18.88263        -0.263845      0.001176     -0.003401
O	     20.51648      1.92695     20.98212        -0.004044      0.004445     -0.004136
O	      8.44051      2.02923      8.38124         0.298773      0.002219     -0.000546
O	     10.30937      2.01281     10.48174         0.013448      0.001545     -0.001805
O	     12.17838      1.99680     12.58136        -0.088266     -0.005781      0.000561
O	     14.48989      1.97800     14.68142         0.064445      0.002486      0.003184
