# total energy = -114.56094445 eV
 
CRYSTAL
PRIMVEC
0.027163 4.188622 4.185037 
4.189326 0.027686 4.184530 
4.190867 4.189656 0.026249 
PRIMCOORD
16 1
Li	      8.37681      4.22038      4.21147         0.009401     -0.005469      0.000780
Li	      4.21854      6.29855      6.28722        -0.002108     -0.005038      0.010258
Li	      4.20180      2.12040      6.27375         0.005490     -0.001560      0.007392
Li	      6.29287      4.21978      6.28994         0.004002     -0.006500     -0.000135
Li	      6.30147      6.29466      4.21252        -0.001061      0.005021     -0.008529
Ti	      2.09519      2.09266      0.01623        -0.018904      0.022974     -0.018897
Ti	      2.12509      4.19833      6.27597        -0.008704     -0.004646      0.017668
Ti	      4.20356      4.20411      4.19428         0.020682     -0.027421     -0.003366
O	      2.10618      2.00337      2.00501        -0.021858     -0.076322     -0.093679
O	      4.29548      4.19327      2.20399         0.072875      0.014122      0.090022
O	      4.29423      2.20999      4.18584         0.075942      0.078476      0.025658
O	      6.25439      4.17107      4.16935        -0.071788     -0.077674     -0.095096
O	      2.15509      4.23155      4.22587         0.064024      0.075112      0.084048
O	      4.11380      6.19224      4.20753        -0.068013     -0.069609     -0.022736
O	      4.11469      4.20956      6.18875        -0.080528     -0.010918     -0.086672
O	      6.30316      6.39768      6.38905         0.020548      0.089453      0.093283
