# total energy = -114.42209335 eV
 
CRYSTAL
PRIMVEC
0.000668 15.979495 18.517100 
2.011943 5.992890 9.258153 
2.012341 9.987005 9.258726 
PRIMCOORD
16 1
Li	      2.01112      5.99384      9.25688        -0.001710     -0.010314      0.001088
Li	      2.01066      9.98802     13.71319         0.000075     -0.006087     -0.013525
Li	      2.01130     15.97977     16.46564         0.000139     -0.002019     -0.030196
Li	      2.01121     15.97902     20.56626         0.001039      0.006678      0.029412
Li	      2.01138     21.97157     23.32060         0.000148      0.001458      0.013083
Ti	      2.01157     11.98411     11.68920        -0.003343     -0.000599      0.620626
Ti	      2.01122     13.98295     18.51506         0.000032     -0.004737      0.013407
Ti	      2.01127     19.97508     25.34464        -0.001019      0.001595     -0.629259
O	      2.01142     17.97838     20.58465         0.000630     -0.013816      0.009868
O	      2.01134     19.97573     23.55222         0.000287     -0.015655      0.582590
O	      2.01073     21.97092     25.51553         0.008408      0.014399      0.032179
O	      2.01099      7.98873      9.25717         0.001874      0.007265     -0.000708
O	      2.01130      9.98783     11.51728        -0.000546     -0.006878     -0.030637
O	      2.01064     11.98224     13.48123         0.002903      0.022143     -0.579984
O	      2.01179     13.98306     16.44824        -0.008922     -0.011663     -0.020169
O	      2.01135     15.97795     18.51564         0.000004      0.018231      0.002226
