# total energy = -203.70398485 eV
 
CRYSTAL
PRIMVEC
-0.000735 2.084179 2.084507 
27.018910 -0.228077 27.317157 
6.237072 2.068061 4.182957 
PRIMCOORD
26 1
Li	      6.20304      1.99799      4.25191        -0.004311      0.000469      0.000377
Li	      6.32476      2.02342      8.39609         0.019486     -0.019543      0.017985
Li	      8.21657      0.02353      8.31157         0.004244     -0.018676      0.015787
Li	     22.95969      3.91175     23.17505         0.016569      0.019392     -0.017968
Li	     18.61839     -0.06346     18.81401        -0.011180     -0.009501      0.011173
Ti	      2.07413      0.01179      2.07340        -0.023787      0.063884     -0.056812
Ti	      4.25852      1.99809      6.33470         0.059567     -0.003265      0.000283
Ti	     16.56644      1.95056     14.71656        -0.034774     -0.015648      0.011109
Ti	     12.47085      1.98728     14.68300        -0.004020      0.006429     -0.008931
Ti	     14.63600      1.98257     16.77275         0.064215      0.020931     -0.022015
Ti	     20.72645     -0.14672     20.98271        -0.088810      0.030594     -0.031237
Ti	     29.16161      3.90091     29.43710         0.082340     -0.051176      0.045151
Ti	     31.10716      1.86582     29.38656        -0.011569     -0.011965      0.011962
O	     28.92802      1.85039     29.40552        -0.039114      0.009977     -0.009279
O	      4.22760      2.03734      4.20943         0.025116     -0.039120      0.035549
O	      6.23755      2.01691      6.31793        -0.088164     -0.005620      0.002014
O	      8.41072      2.07703      8.34416         0.036094      0.027970     -0.029278
O	     10.39347      1.99668     10.50549         0.025902      0.035833     -0.030587
O	     12.42491      1.96688     12.61960        -0.012501     -0.046635      0.042819
O	     14.49315      2.03209     14.63931        -0.051806     -0.020946      0.021884
O	     16.69852      1.90056     16.84992         0.053919      0.013282     -0.008220
O	     18.76948      1.97750     18.85803         0.028777      0.046036     -0.039990
O	     20.80887      1.93900     20.98035        -0.007138     -0.022780      0.016074
O	     22.79994      1.85105     23.15052        -0.068322     -0.024946      0.032489
O	     24.94985      1.95658     25.12938         0.031251     -0.006576      0.011183
O	     27.02377      1.91100     27.26163        -0.001985      0.021599     -0.021523
