# total energy = -221.75779938 eV
 
CRYSTAL
PRIMVEC
-0.129554 14.884606 14.763868 
4.153395 2.154365 6.262374 
4.120612 8.491237 8.413779 
PRIMCOORD
28 1
Li	      4.10285     10.61571     10.52278        -0.001201      0.001621     -0.001032
Li	      8.09496     17.01093     20.89835        -0.012657     -0.019565     -0.019552
Li	      6.21669     16.95122     19.04036         0.001672      0.003419      0.004140
Li	      0.01137     12.77104     12.75869         0.014778      0.018607      0.022696
Li	      1.89003     12.83085     14.61744        -0.003269     -0.004711     -0.007152
Ti	      4.07850      2.20567      6.20252         0.048959      0.070946     -0.034230
Ti	      6.09097     23.29214     25.29736         0.055199     -0.010402      0.036202
Ti	      6.13051     10.60580     12.68218        -0.079744     -0.054864      0.063584
Ti	      4.15805     12.69262     12.68988        -0.045244     -0.065873      0.035004
Ti	      2.10606      4.29075      6.21200         0.092319      0.060286     -0.066668
Ti	      2.01643      6.48918      8.36034        -0.052704      0.009396     -0.041607
Ti	      4.12294     10.66722     14.67936         0.029111     -0.039427     -0.053105
Ti	      3.98446     19.11433     18.97779        -0.028709      0.031174      0.071586
Ti	      6.11333     19.13665     21.03498        -0.006161     -0.001900      0.004200
O	      1.97858     16.95176     16.85600        -0.005739      0.003286      0.008369
O	      4.03569     16.97853     18.91963        -0.034001     -0.001457     -0.017411
O	      6.09177     21.22462     25.05009        -0.034015     -0.018240     -0.034011
O	      4.05669     19.22374     21.11281        -0.024480     -0.008386      0.026434
O	      6.19516      8.52576     12.57778        -0.002947     -0.000112      0.003647
O	      4.06754      6.43622      8.44887        -0.045687      0.013596      0.013867
O	      2.01500      8.55656      8.60786         0.041904      0.018972      0.026984
O	      4.16927      8.46130     10.44455         0.043267     -0.013388     -0.008021
O	      6.12920     12.82933     16.80079         0.003342      0.000315     -0.004115
O	      4.05008     10.56019     12.54702         0.022918     -0.008979     -0.051791
O	      6.20262     14.86644     18.86142         0.021511      0.020536     -0.014930
O	      4.07246     12.80185     14.73637         0.022125      0.012375      0.026341
O	      1.90447     14.91516     14.79610        -0.017056     -0.016771      0.014168
O	      4.05396     14.89066     16.82882        -0.003488     -0.000452     -0.003596
