# total energy = -102.73611190 eV
 
CRYSTAL
PRIMVEC
0.052238 4.154567 4.148866 
8.425157 2.125282 10.429042 
4.202924 2.106875 2.097252 
PRIMCOORD
16 1
Li	      8.42294      2.14139     10.40748        -0.002018      0.004604      0.000277
Li	      4.25228      4.21058      8.29520         0.001287      0.012079     -0.008317
Li	     10.54920      6.26490     12.54326         0.001737     -0.010621      0.008006
Li	      6.32469      4.17922      6.28142         0.003944     -0.003952      0.000903
Li	      8.42691      4.11130      8.44798         0.004159     -0.021291      0.016221
Li	      6.32265      2.20903      8.24077        -0.002465      0.021341     -0.017410
Ti	      6.35773      6.19330      8.40821        -0.019906     -0.149380      0.160337
Ti	      8.44602      4.28159     12.42882         0.010275      0.144382     -0.157129
O	      1.99706      1.99836      2.11087        -0.075223     -0.027399      0.007338
O	      4.32787      2.19792      4.15023         0.079716      0.023112     -0.011585
O	      6.37041      6.27602     10.30511         0.001258     -0.010886     -0.185458
O	      8.47055      6.17517     12.49865        -0.000325     -0.179765      0.007752
O	      2.25186      4.14909      4.25130         0.074104     -0.010923      0.028294
O	      4.12539      4.20203      6.15843        -0.074775      0.005906     -0.028329
O	      6.33209      4.29919      8.33939        -0.001183      0.194974     -0.007894
O	      8.43152      4.19964     10.53267        -0.000587      0.007818      0.186993
