# total energy = -102.34723024 eV
 
CRYSTAL
PRIMVEC
-0.000554 2.081198 2.081612 
16.500040 -0.045539 16.694026 
8.250945 2.070168 6.253671 
PRIMCOORD
16 1
Li	      8.24907      2.06911      6.25575         0.001179      0.001308     -0.013091
Li	     12.37893      4.12384     12.52412        -0.011862     -0.038484      0.031492
Li	      6.20483      2.05784      8.33639        -0.003481      0.005180      0.002544
Li	      8.24650     -0.02068      8.34486         0.004475     -0.010932      0.001545
Li	     18.54418      2.04300     16.68294        -0.006170     -0.004905      0.007346
Li	     12.37027     -0.01698     12.50122         0.002855      0.032086     -0.036540
Ti	     10.23236      2.06421      8.33923        -0.274514      0.007967     -0.006967
Ti	     14.51823      2.03872     16.68674         0.270861      0.006494      0.000319
O	     18.57975      1.94268     18.86780         0.010683     -0.110146      0.105286
O	      4.11866      2.07578      4.16580         0.013972     -0.005531      0.001225
O	      6.16520      2.16167      6.15643        -0.002945      0.095916     -0.083618
O	      8.38781      2.06239      8.34010         0.276537      0.004934      0.002616
O	     10.33159      2.15178     10.33356         0.013315      0.099961     -0.103156
O	     12.37447      2.05316     12.51064        -0.004411     -0.002530      0.005491
O	     14.41222      1.94977     14.69340        -0.000757     -0.079044      0.089038
O	     16.35917      2.04103     16.68607        -0.289736     -0.002273     -0.003530
