# total energy = -92.05830236 eV
 
CRYSTAL
PRIMVEC
-0.000370 2.070448 2.072173 
8.141154 2.115454 -2.118728 
-0.022809 4.279782 -4.283584 
PRIMCOORD
16 1
Li	      5.97441      4.35314     -2.28290        -0.017509      0.023742     -0.026766
Li	      8.02097      6.33426     -2.19686        -0.001570     -0.004172      0.007839
Li	      2.12627      4.23027     -2.16461         0.006825      0.004696     -0.006515
Li	      4.17462      6.21433     -2.07650         0.012913     -0.028411      0.030744
Mn	      8.07308      8.45072     -4.31674        -0.027549      0.028879     -0.021678
Mn	      2.07499      2.11705     -0.04142         0.030681     -0.027985      0.020787
Ni	      4.10472      2.19925     -2.19951         0.031637      0.009491     -0.002284
Ni	      6.04394      6.29783     -4.23124        -0.032150     -0.009990      0.001990
O	      6.12446      4.31892     -4.32238         0.036538     -0.134973      0.128319
O	      0.06316      4.38515     -2.32045         0.058764      0.056473     -0.046264
O	      6.21252      4.11791      0.01775         0.163058      0.094167     -0.072092
O	      0.06435      1.97393      0.09752         0.001139     -0.023172      0.034326
O	      1.94468      1.99614     -1.99066        -0.058211     -0.051775      0.043110
O	      4.02363      4.17794     -2.10823        -0.034892      0.134383     -0.128365
O	      1.94353      4.40882     -4.40949        -0.004200      0.022138     -0.036340
O	      3.95852      2.17018     -0.09275        -0.165473     -0.093490      0.073190
