# total energy = -145.04801140 eV
 
CRYSTAL
PRIMVEC
-0.003864 4.196724 4.168994 
10.252377 0.010625 10.402257 
6.163118 2.110336 4.151189 
PRIMCOORD
20 1
Li	     10.21949      4.22255     14.46445        -0.029380     -0.010525     -0.028781
Li	     10.29587      2.09825      8.41776         0.025617      0.008179      0.020440
Li	     12.29274      6.25588     14.50888         0.014189     -0.028464     -0.010634
Li	      8.22236      0.06529      8.37186        -0.016029      0.028613      0.012563
Li	     12.31604      4.22806     12.56263         0.006655     -0.008035      0.021292
Li	      8.19816      2.09293     10.31702        -0.003756      0.007604     -0.022629
Ti	      2.04804      4.19782      6.24716         0.001462      0.015943      0.018986
Ti	      6.09848      4.17562      6.20215        -0.037730      0.067190     -0.028553
Ti	      2.04950      2.10001      4.16398        -0.002801     -0.014630     -0.017512
Ti	      4.16405      2.13440      6.27531         0.037644     -0.055740      0.040425
O	     12.28849      2.07007     12.56120        -0.066935     -0.028786      0.054945
O	      4.03130      2.11594      4.28048        -0.095923     -0.008631      0.056740
O	      6.17475      2.10688      6.20937        -0.001194      0.038078      0.005774
O	      8.20534      2.19665      8.21805         0.012365      0.049172     -0.088043
O	     10.27255      2.18960     10.50551        -0.000511      0.021875      0.097714
O	     12.30965      4.12422     14.66249        -0.013440     -0.044402      0.083439
O	      4.08761      4.20371      6.26874         0.007825     -0.046311     -0.008394
O	      6.23115      4.19404      8.19804         0.099126      0.009234     -0.057096
O	      8.22659      4.25098     10.31888         0.060483      0.021966     -0.050554
O	     10.24208      4.13108     12.37476         0.002333     -0.022328     -0.100123
