# total energy = -144.65311115 eV
 
CRYSTAL
PRIMVEC
-0.000162 2.088982 2.088906 
20.277154 -0.249684 21.136937 
4.055863 2.089316 2.088255 
PRIMCOORD
20 1
Li	      8.11020      1.87563      6.48013        -0.000664      0.008755     -0.006990
Li	     10.13704      1.98487      8.46059        -0.000655      0.004542     -0.005521
Li	     10.13349     -0.11593     10.55999        -0.001645     -0.017693      0.019599
Li	     12.17052      1.94745     14.76052         0.009748      0.027717     -0.026388
Li	     16.22584      1.90856     18.97669         0.005607     -0.013688      0.015867
Li	     18.24324     -0.05890     18.86131        -0.003479     -0.008697      0.008999
Ti	     20.27462     -0.21898     21.11401         0.000244      0.034199     -0.036264
Ti	      6.08284      2.04081      4.22755        -0.003415     -0.045950      0.047132
Ti	     12.16474      1.97316     10.56072         0.003150     -0.045172      0.044879
Ti	     14.27046      1.93215     16.86455         0.112676      0.052911     -0.054484
O	      2.02568      2.08099      2.10031        -0.005833     -0.076086      0.074184
O	      4.05478      2.08040      4.19248        -0.002701      0.079301     -0.076665
O	      6.08268      2.14972      6.20924        -0.004665      0.040651     -0.038307
O	      8.10813      1.89867      8.54655        -0.000089     -0.100911      0.102985
O	     10.13434      1.98477     10.54904        -0.004396     -0.020363      0.020088
O	     12.16216      2.08223     12.54030        -0.002893      0.107171     -0.108918
O	     14.18098      1.81952     14.88951         0.020639     -0.100523      0.106292
O	     16.18256      1.91993     16.87805        -0.129275      0.019581     -0.021845
O	     18.23782      2.00818     18.87991         0.012757      0.088468     -0.091492
O	     20.27362      1.76382     21.21815        -0.005113     -0.034214      0.026851
