# total energy = -181.06450675 eV
 
CRYSTAL
PRIMVEC
0.061427 6.133773 6.309951 
8.382370 2.035313 10.608038 
4.167685 2.051705 2.137359 
PRIMCOORD
24 1
Li	      8.46561      8.19311     16.87590         0.010927     -0.011545      0.003543
Li	      8.35892      8.12796     12.73806         0.001458     -0.017466     -0.015783
Li	      6.35593      6.17093     12.73742        -0.007803     -0.002652     -0.021369
Li	      8.44550      4.13559     12.54170        -0.014139      0.032842      0.012764
Li	     10.39383      4.01503     10.56841        -0.040419     -0.001472     -0.006005
Li	      8.35635      6.10737     10.78484         0.011100      0.014098     -0.002401
Ti	      6.26275      8.18409     10.59352         0.000834     -0.014055      0.005063
Ti	      6.31044      4.11662      6.46619         0.052874     -0.034669      0.100964
Ti	      8.31732      4.07797      8.47956         0.024549     -0.015309      0.026462
Ti	      8.40997      6.18010     14.79206        -0.032595      0.041303     -0.065096
Ti	      2.20252      4.03909      6.34881        -0.035450     -0.013939     -0.031252
Ti	      6.36972      4.12006     10.48036         0.041932      0.051172     -0.054828
O	      2.09029      2.02504      2.21958         0.013785     -0.030860      0.020501
O	      4.20863      2.04785      4.25013         0.023150     -0.011905      0.011341
O	      6.34274      8.18926     12.61570        -0.022861      0.057336      0.002850
O	      8.41980      8.17022     14.80260        -0.002923     -0.037420     -0.003265
O	     10.52226      6.17474     14.82720        -0.000953     -0.027315     -0.047757
O	      4.23250      4.09784      6.35092        -0.003462      0.024197      0.003831
O	      6.19435      3.97521      8.48747         0.024905      0.015408      0.003360
O	      8.32085      4.08676     10.52974        -0.096627     -0.009301     -0.028175
O	      2.18079      6.15465      6.39328         0.034453     -0.037460     -0.020904
O	      4.23042      6.11434      8.35257        -0.024729      0.016460      0.008628
O	      6.32152      6.15935     10.55038         0.007306     -0.001849      0.000939
O	      8.50014      6.12702     12.83473         0.034689      0.014402      0.096590
