# total energy = -215.87513265 eV
 
CRYSTAL
PRIMVEC
0.034741 14.474020 14.654469 
4.199931 2.068856 6.289243 
4.200694 6.203914 6.289611 
PRIMCOORD
28 1
Li	      6.26674     20.67595     23.04363         0.014432      0.000240     -0.004126
Li	      4.40335      4.13324      8.24453         0.020555      0.000686      0.003289
Li	      2.21562      4.13341      6.31123         0.003173     -0.001048     -0.011222
Li	      6.24529     16.54030     18.95855        -0.025595      0.000540     -0.007406
Li	      0.14948     12.40380     12.62698        -0.007501     -0.001127      0.013140
Li	      6.23691     18.60695     20.89555        -0.003472      0.001540     -0.023835
Ti	      0.07379     14.47031     14.66092         0.000879      0.003724     -0.043914
Ti	      6.30338      8.27028     10.51880         0.017770     -0.008056     -0.026376
Ti	      4.19516      6.20064     10.45527         0.038221     -0.012139     -0.030869
Ti	      4.20612      8.26992     12.42553        -0.006016      0.001960      0.036735
Ti	      6.25857     12.40506     14.73508        -0.028474     -0.001188     -0.041293
Ti	      4.10146     14.46890     14.71166         0.011157      0.011365      0.071494
Ti	      2.20449      8.26846     10.47887        -0.020124      0.026551      0.004524
Ti	      8.39735     18.60901     23.03653        -0.093835     -0.007502      0.061340
O	      2.23791     16.53932     16.86970         0.058390     -0.001988      0.041611
O	      4.19930     16.54032     18.89076         0.006414      0.001510      0.047865
O	      2.06655      4.13312      4.22887        -0.023996      0.002432     -0.010795
O	      4.24369     18.60752     20.93989         0.000065      0.000767      0.011768
O	      2.12367      6.20037      6.32389        -0.024974     -0.000949     -0.032224
O	      4.15959      6.20082      8.34724         0.042317      0.004810     -0.021759
O	      6.23333     10.33776     14.65019         0.025220     -0.010099      0.007072
O	      4.24181      8.26830     10.28279        -0.061882      0.005335      0.069675
O	      2.09956     10.33658     10.58347         0.049131     -0.011430     -0.006635
O	      4.23736     10.33665     12.58424        -0.027762      0.000984      0.010333
O	      6.41537     14.47295     18.77079         0.100690     -0.003022     -0.046085
O	      4.10095     12.40230     14.60197        -0.032704      0.003472     -0.057908
O	      2.08128     14.47064     14.68686         0.000184     -0.003846      0.002879
O	      4.26046     14.47240     16.79222        -0.032262     -0.003522     -0.017278
