# total energy = -135.77003455 eV
 
CRYSTAL
PRIMVEC
-0.024921 4.122766 4.172526 
10.378643 2.061510 12.454223 
6.227998 4.116174 6.227601 
PRIMCOORD
20 1
Li	      0.01432      4.08782      4.16597        -0.007740     -0.013679     -0.007471
Li	      8.24244      8.21460     12.46207        -0.006852     -0.028652      0.003918
Li	     10.34559      8.22678     14.56701        -0.012724     -0.002056      0.002018
Li	     10.39989      4.14420     14.55785         0.013857      0.003864      0.013229
Li	      2.01810      2.13083      4.14832        -0.010771      0.025856     -0.012246
Li	     12.45122      6.16956     14.53493        -0.003790     -0.000947     -0.010412
Li	     14.52516      6.17761     16.61171         0.012847     -0.005921     -0.006402
Ti	      6.24800      4.03016     10.30458         0.136703     -0.193493     -0.199541
Ti	     14.47830      8.20422     18.79696        -0.163432      0.013253      0.127305
Ti	      4.16874      2.14675      6.33680         0.035846      0.104732      0.328927
O	     12.59514      4.11304     14.47514         0.174148     -0.010076     -0.035547
O	      4.12114      6.17756      8.23934        -0.005908      0.002483     -0.139198
O	      6.07593      6.09946     10.36899        -0.124845     -0.053526     -0.003974
O	      8.42181      6.05972     12.43773         0.088540     -0.090428      0.029255
O	     10.37249      6.20854     14.39254        -0.003680      0.010692     -0.373550
O	     12.36878      6.27847     16.60976         0.036134      0.247077     -0.018754
O	      4.16961      4.11261      6.23025        -0.000584     -0.044758      0.012642
O	      6.26088      4.09868      8.44152        -0.021359     -0.010588      0.257363
O	      8.16714      4.10485     10.50975        -0.139850      0.010059      0.031146
O	     10.36849      4.19896     12.45443         0.003459      0.036108      0.001293
