# total energy = -135.81873761 eV
 
CRYSTAL
PRIMVEC
0.000315 2.078657 2.077859 
10.198595 -0.141430 10.532116 
12.220852 4.084167 8.386384 
PRIMCOORD
20 1
Li	     12.23337      4.05374     12.56973         0.011156      0.047152     -0.038446
Li	     14.26430      6.12709     12.57769         0.000864     -0.020429      0.021262
Li	      4.07626     -0.04253      4.20008        -0.005853      0.011151     -0.011389
Li	      6.10642      2.02350      4.21069        -0.012513     -0.035933      0.037317
Li	      8.23259      4.08308      8.39030         0.055003     -0.003958     -0.005286
Li	     20.37897      3.97304     16.81345         0.000245     -0.000738     -0.002601
Li	     10.10470      2.00125      8.39277        -0.051935      0.001859      0.003148
Ti	     12.13687      4.08619      8.39082        -0.265688      0.007430     -0.007288
Ti	     14.27298      4.01069     14.69581         0.005230      0.003896     -0.005196
Ti	      6.20378      1.99543      8.39155         0.272866     -0.007498      0.011786
O	     12.30112      1.93213     12.61595         0.056949      0.007618     -0.010977
O	     14.26818      3.92195     12.70194         0.006492     -0.081781      0.086019
O	      4.06967      2.16025      4.07773        -0.003170      0.076628     -0.079520
O	     16.23423      4.00908     14.69677        -0.057923     -0.010896      0.012665
O	      6.06289      1.90639      6.40636         0.022485     -0.069306      0.067796
O	     18.29411      4.09319     16.69110         0.048742      0.086673     -0.080921
O	      8.04156      2.00456      8.38729        -0.324188     -0.003998     -0.000930
O	     10.29847      4.07843      8.39656         0.308405     -0.002683     -0.004462
O	     10.24268      1.84705     10.62360        -0.044307     -0.080775      0.080088
O	     12.27662      4.17531     10.37648        -0.022860      0.075587     -0.073068
