# total energy = -135.68693872 eV
 
CRYSTAL
PRIMVEC
0.072499 10.916785 10.006894 
4.154951 2.211667 6.004420 
4.155650 2.212632 2.000699 
PRIMCOORD
20 1
Li	      4.17039      2.36564      6.00289        -0.002577      0.041155     -0.000097
Li	      4.16070      4.46975      8.00445        -0.041432      0.026844      0.000643
Li	      4.14187      6.52792      6.00389        -0.027011     -0.026560      0.000749
Li	      2.21094      4.55083      6.00491         0.015757     -0.015873     -0.003060
Li	      6.30345      8.66080     10.00878         0.013160     -0.055634     -0.001736
Li	      4.23071     10.98668     14.01027         0.019062      0.003671     -0.000413
Li	      6.17759     10.75107     12.00701        -0.006032      0.007932      0.002238
Ti	      6.23849     13.03159     14.00650        -0.022357     -0.233163     -0.000047
Ti	      2.04783      2.36713      4.00194        -0.230251      0.398076     -0.001485
Ti	      4.26063      8.66778      8.00952         0.150368     -0.139849     -0.002801
O	      2.17314      2.04907      1.99946        -0.025876      0.004301      0.010944
O	      4.30284     13.11268     14.00708         0.128270     -0.021146      0.002795
O	      2.18740      4.19006      4.00278        -0.024606     -0.359258     -0.001342
O	      4.36003      4.49090      6.00268         0.295699      0.030389     -0.001105
O	      1.96239      6.53901      6.00657        -0.229699     -0.026662     -0.011644
O	      4.10482      6.79165      8.00582         0.020206      0.166211      0.002354
O	      6.28514     11.15133     14.00887         0.009419      0.221974      0.002587
O	      4.15871      8.70123     10.00670         0.027523      0.020724      0.004198
O	      6.29436     13.30371     16.01041        -0.025902     -0.022123     -0.001439
O	      4.06393     10.70762     12.00832        -0.043720     -0.021009     -0.001340
