# total energy = -175.13199495 eV
 
CRYSTAL
PRIMVEC
0.008419 6.199620 6.093719 
8.499146 4.103741 12.228357 
4.242363 4.128772 4.072677 
PRIMCOORD
24 1
Li	      6.25436     10.26747     12.19672         0.003759     -0.020609      0.007178
Li	      6.37096      6.20957     12.12023         0.008435      0.004439     -0.016107
Li	      4.33588      8.29670     12.24493        -0.012849      0.014477      0.025218
Li	      8.74898      8.26553     16.31096        -0.009670      0.004081     -0.008159
Li	      6.40223      8.21924     10.25662        -0.003762     -0.008508      0.027184
Li	      4.17501      4.08742      8.03662        -0.007995     -0.024590      0.004404
Li	     10.60486      8.25894     14.30519        -0.019179      0.023850     -0.001364
Ti	     12.71393      8.21843     16.27486        -0.135981     -0.038953     -0.005352
Ti	      8.44130     10.28867     14.30711         0.046668     -0.007440      0.066322
Ti	      4.14337      6.23188      6.15107        -0.028735     -0.012302     -0.002495
Ti	      2.20903      2.00110      4.08539         0.009209     -0.001317      0.139015
Ti	      6.43817      8.29157     14.17726         0.024853      0.088814     -0.359450
O	      1.96605      2.05217      2.05885        -0.059076      0.007497      0.051313
O	      4.23476      8.27294     10.16978        -0.068742      0.039673     -0.012619
O	      6.39041      8.25597     12.33463        -0.001464      0.014679      0.312222
O	      8.47256      8.23618     14.31234        -0.052701     -0.038096     -0.023723
O	      2.27067      4.04459      4.03119         0.140929     -0.055996      0.021168
O	      4.21137      4.21458      6.02442         0.018006      0.045563     -0.092225
O	      6.35918      4.11276      8.14544         0.048927     -0.000498     -0.003789
O	      8.52375     10.30003     16.26512        -0.016811     -0.008127     -0.035048
O	     10.61078     10.33210     18.34149         0.054443      0.031663      0.005612
O	      4.31254      6.20623      8.14603         0.045137     -0.012635     -0.049888
O	      6.24568      6.16951     10.07099        -0.020454      0.000339     -0.144530
O	      8.54523      6.13035     12.28508         0.037052     -0.046003      0.095113
