# total energy = -175.05227217 eV
 
CRYSTAL
PRIMVEC
0.001433 4.127538 4.137280 
12.437266 2.024319 14.523512 
10.361285 2.042222 8.299268 
PRIMCOORD
24 1
Li	     12.49096      6.12033     18.61875        -0.003561      0.017845      0.010422
Li	      2.08205      4.18011      6.26057        -0.010323     -0.000878      0.009259
Li	     14.45390      6.10308     16.58658        -0.000966      0.009418     -0.005074
Li	     16.53127      6.16660     18.69106         0.010947      0.013798      0.004028
Li	     12.48917      4.18646     16.62066        -0.013555      0.049548     -0.007330
Li	     16.52073      4.04074     16.58560         0.015329     -0.017840     -0.005615
Li	     10.42310      2.00584     12.40841         0.009930     -0.015555     -0.009115
Ti	      8.29001      4.11997     12.41982        -0.150099      0.026188     -0.079784
Ti	     10.43461      4.06698     14.52206         0.025683      0.042562      0.132191
Ti	     12.44106      4.03518     12.42308         0.010073     -0.301829     -0.188091
Ti	     14.44935      4.00278     14.58749        -0.001857     -0.012285      0.174445
Ti	     18.63897      4.08143     18.66948         0.144123      0.023420     -0.044336
O	     14.50252      4.08702     16.59522        -0.014368      0.011538     -0.012351
O	     16.60554      4.08569     18.70228         0.016406     -0.026301      0.060178
O	      6.15271      2.09152      6.20006        -0.032369     -0.022510     -0.056755
O	      8.27501      2.04018      8.29610         0.013877     -0.002773      0.040257
O	     10.23463      1.90821     10.37062        -0.117421     -0.070790      0.007191
O	     12.42809      6.33102     16.58355         0.007918      0.357881      0.011928
O	     14.50966      6.19515     18.68473        -0.012572      0.069287     -0.000545
O	     16.71795      6.02727     20.73660         0.118286     -0.034462      0.019628
O	      6.30500      4.14878      8.25373         0.025892     -0.037539     -0.058018
O	      8.32092      4.07613     10.36615        -0.008357      0.023098     -0.006733
O	     10.34349      4.11462     12.44621         0.008621     -0.025806      0.064213
O	     12.44216      4.13624     14.54451        -0.041638     -0.076015     -0.059992
