# total energy = -175.10856512 eV
 
CRYSTAL
PRIMVEC
0.020184 4.167148 4.190414 
6.210646 0.000719 6.315079 
8.281355 6.261344 6.315365 
PRIMCOORD
24 1
Li	      2.11788      0.07557      2.19764         0.000099     -0.002930      0.007152
Li	      4.19943      6.20836      6.32210        -0.014259     -0.028421      0.017449
Li	      4.17806      4.18978      8.35913        -0.031939      0.026251     -0.020833
Li	      6.16986      6.25633      8.35151        -0.006425     -0.001691     -0.008829
Li	      8.23730      8.40723      8.49779         0.022350     -0.017915     -0.002272
Li	      2.15611      1.94546      4.10842        -0.019685      0.012516     -0.012020
Li	      6.16558      4.27359      6.27842         0.002674     -0.010325     -0.005698
Ti	      8.28059      6.30566      6.37701        -0.034801     -0.071723     -0.049810
Ti	      8.24626      6.22840     10.51528        -0.015990      0.076300      0.063365
Ti	      8.29566      4.12472      8.32216        -0.103057     -0.059459     -0.030331
Ti	      4.14474      4.22486      4.26873         0.072493      0.051042      0.149300
Ti	      4.22290      2.01386      6.28170         0.070636      0.019789     -0.023064
O	      8.26648      2.12683      8.30344         0.013726      0.083712     -0.066677
O	     10.33630      8.30080     12.71967        -0.029501     -0.014264     -0.000202
O	      4.13572      2.14964      4.34375         0.012683      0.019572      0.098088
O	     12.33265      8.38774     14.57526        -0.068527     -0.015186     -0.053383
O	      6.18697      2.13615      6.33043        -0.023296     -0.069042     -0.003525
O	      8.29126      8.34139     10.54588         0.013122     -0.009405      0.062988
O	      8.32336      4.12666     10.45870         0.020050      0.026761     -0.013456
O	     10.27817      6.19057     10.49788        -0.067152     -0.095342      0.021727
O	      4.14835      4.11239      6.18244         0.006334     -0.021320     -0.150030
O	     12.48844      6.29454     12.61572         0.073296      0.106949      0.011099
O	      6.35790      4.19763      8.57086         0.105680     -0.008127      0.044683
O	      8.30187      6.22801      8.41238         0.001490      0.002257     -0.035720
