# total energy = -144.61698255 eV
 
CRYSTAL
PRIMVEC
0.190578 22.001392 24.935972 
2.083128 4.000671 6.817084 
2.085217 8.002173 6.816075 
PRIMCOORD
22 1
Li	      2.01731      4.00184      6.73185        -0.031881     -0.001102      0.014851
Li	      2.04469      5.99856      8.97837        -0.016179      0.002546     -0.000973
Li	      2.19456     14.00391     13.71530         0.016504     -0.001573      0.003542
Li	      2.22179     16.00031     15.96061         0.034258      0.001025     -0.014550
Li	      2.18823     14.00164     17.93966         0.022692     -0.001588     -0.019123
Li	      2.19252     16.00164     20.29070         0.006433     -0.002060     -0.010547
Li	      2.23610     26.00280     27.33934        -0.001304     -0.000148      0.009033
Li	      2.24203     28.00309     29.68926        -0.026211      0.000940      0.018479
Ti	      2.11861      8.00223     11.34795        -0.000915     -0.002296      0.001824
Ti	      2.27871     18.00065     22.57339         0.255440     -0.000925     -0.320807
Ti	      2.15060     24.00267     25.05519        -0.242294      0.003940      0.336759
O	      2.28422     24.00262     26.87921        -0.023416     -0.007364     -0.332957
O	      2.23020     26.00266     29.50017        -0.007891     -0.005658     -0.021479
O	      2.37663     28.00344     31.82453         0.319730     -0.000029     -0.008161
O	      2.11565      7.99913      9.41355         0.001230      0.001611      0.102587
O	      2.11929     10.00097     11.34788         0.003478      0.003653     -0.001561
O	      2.12369     12.00301     13.28130        -0.001876     -0.000706     -0.100198
O	      2.05451     14.00000     15.80554        -0.343541      0.001129      0.003371
O	      2.19975     16.00243     18.13011         0.007328     -0.002750      0.018821
O	      2.14565     18.00156     20.75079         0.022356      0.006582      0.322435
O	      2.19678     20.00123     22.87555         0.015114      0.003346      0.014568
O	      2.23240     22.00229     24.75371        -0.009057      0.001426     -0.015914
