# total energy = -152.94018196 eV
 
CRYSTAL
PRIMVEC
0.067748 4.081522 4.106827 
6.290254 2.137551 8.221780 
6.369499 6.241050 4.092315 
PRIMCOORD
24 1
Li	      6.31236      6.20421      4.08656         0.017503     -0.003843     -0.007043
Li	      8.51908     10.36809     10.28799         0.012231      0.004145      0.007816
Li	      4.28197      6.15308      6.13635         0.022150     -0.021746      0.008064
Li	      6.31040      6.31253      8.18134        -0.016253      0.011184     -0.001762
Li	      6.30821      4.24908     10.31807         0.003169     -0.018328      0.020313
Li	      8.49075      6.25832     10.27528         0.009632      0.001141      0.010975
Li	      4.37854      4.11060      4.08882         0.009976     -0.002969     -0.007463
Li	     10.57021      8.28156     10.28549         0.018266     -0.005500     -0.007400
Li	      6.31635      4.21839      6.11320        -0.011610      0.033164     -0.015762
Ti	      8.46541      8.19493     12.42691         0.057574     -0.100609      0.125373
Ti	      4.37011      4.15106      8.21293         0.065523      0.103027      0.003293
Ti	      8.39855      8.32360      8.33276        -0.246259      0.023418      0.125341
O	      2.09213      2.09867      1.97350        -0.007057     -0.012516     -0.181775
O	     10.72390     10.28950     14.23994         0.016041     -0.003705     -0.151809
O	      4.12507      6.05574      8.18899        -0.020683     -0.191251      0.001077
O	      6.56405      8.32485      8.17915         0.285756     -0.012439      0.021566
O	      6.26129      6.31578     10.26451        -0.019024     -0.000118     -0.016179
O	      8.45013      8.33491     10.22443         0.002133      0.018679     -0.123002
O	      2.17946      4.14936      4.09769        -0.013996      0.104071      0.025431
O	     10.37410      8.37676     12.29769        -0.133492      0.058900      0.014108
O	      4.36461      4.04311      6.26147         0.001657      0.015129      0.122940
O	      6.27224      6.31326      6.13473        -0.020162      0.006331      0.008881
O	      6.36865      4.23540      8.19541        -0.048168     -0.001421      0.017802
O	      8.55326      6.32357      8.20197         0.015094     -0.004745     -0.000785
