# total energy = -187.23674459 eV
 
CRYSTAL
PRIMVEC
-0.163478 14.837987 14.050489 
4.065516 12.671596 16.057622 
4.065725 12.671577 12.043178 
PRIMCOORD
28 1
Li	      8.04509     25.40414     28.10154        -0.027502      0.019535     -0.001096
Li	      4.08036     14.86326     18.06562         0.006038      0.035527     -0.000265
Li	      5.89965     29.66081     30.10882        -0.018633      0.026424     -0.001329
Li	      0.03534      4.18290      4.01435         0.019639     -0.021833      0.000295
Li	      5.92035     31.65162     32.11506        -0.003245     -0.035834      0.000263
Li	      1.95701     21.11412     22.07974         0.027229     -0.019940      0.000534
Li	      7.98769     33.86915     36.12996        -0.021172      0.020373      0.001246
Li	     -0.07555     10.56175     10.03661         0.003901     -0.013469     -0.000726
Li	      6.01032     23.28542     24.08743        -0.006013      0.008377      0.000324
Li	      2.01255     12.64918     14.05116         0.021712     -0.021249     -0.000699
Ti	      1.99795     14.91460     16.05872         0.171602      0.251090     -0.000250
Ti	      3.93805     18.93119     18.06386        -0.164398     -0.234730      0.000194
Ti	      6.04227     21.12416     22.08723        -0.060327     -0.084697      0.008424
Ti	      3.95813     25.39445     28.09860         0.054718      0.077450     -0.005155
O	      1.83868     16.76296     16.05829         0.008275     -0.266123     -0.000754
O	      4.09773     17.08302     18.06462        -0.010184      0.264237      0.002409
O	      2.06732     19.04935     18.06485         0.232017     -0.021163     -0.001903
O	      3.99789     19.03956     20.07162         0.003311     -0.039912      0.003039
O	      6.02905     19.18767     22.07880        -0.015245      0.129380      0.000797
O	      4.11330     21.07305     22.07899         0.101771     -0.018729     -0.000800
O	      6.08005     21.14739     24.08517        -0.004877      0.006543     -0.009699
O	      3.83706     23.39355     24.08674        -0.041785      0.049422      0.000497
O	      2.09704     10.45272     10.03629         0.044125     -0.051889      0.001119
O	      3.92012     25.37053     26.09491         0.002617     -0.008759      0.003242
O	      5.88717     25.44448     28.10183        -0.106305      0.021679      0.000481
O	      3.97160     27.33114     28.10173         0.018518     -0.134119      0.001028
O	      1.93742     14.80665     14.05145        -0.000104      0.043140     -0.002223
O	      3.86885     14.79671     16.05835        -0.235679      0.019270      0.001006
