# total energy = -132.81790694 eV
 
CRYSTAL
PRIMVEC
0.001152 6.262601 6.150706 
6.263621 0.000881 6.150982 
6.264445 6.263333 8.201359 
PRIMCOORD
18 1
Li	      4.17370      0.00471      4.10085        -0.000812     -0.001876      0.001861
Li	      6.33735      2.16657      8.20152         0.013938      0.015058     -0.000557
Li	      2.01242      2.16441      4.10058        -0.015093      0.014810      0.001730
Li	      6.33705     10.36682     12.30239         0.013395     -0.015227     -0.001585
Li	      8.27520     10.36646     14.35281        -0.013071     -0.016650     -0.001027
Ti	      6.31650      6.26674     12.30212         0.150382     -0.007612     -0.002341
Ti	      8.29598      6.26526     10.25233        -0.149518      0.027981     -0.001069
Ti	      4.17456      2.14573      6.15146        -0.018987      0.145347     -0.003463
Ti	     10.43811     10.38812     16.40310         0.015297     -0.156529     -0.004074
O	      8.44280      8.26210     14.35281         0.140112     -0.137838     -0.001331
O	      4.17472      8.36244     10.25176         0.001466      0.100133      0.001311
O	      6.17037      8.26224     12.30149        -0.132397     -0.136238      0.002687
O	      8.44184      4.27156     10.25219         0.135668      0.125892     -0.000153
O	      4.17390      4.16923      6.15100        -0.000805     -0.083923      0.004506
O	      6.16981      4.27094      8.20094        -0.140352      0.136120      0.004889
O	      8.34111      6.26684     12.30248        -0.091211     -0.003754     -0.001483
O	      4.17440      6.26623      8.20177         0.001035     -0.004304     -0.000428
O	      6.27137      6.26663     10.25174         0.090953     -0.001390      0.000527
