# total energy = -221.59684399 eV
 
CRYSTAL
PRIMVEC
0.026075 14.683968 14.646114 
4.215380 10.481963 14.660262 
4.205690 8.392290 8.375251 
PRIMCOORD
28 1
Li	      4.20283     10.60159     14.68222         0.004584     -0.008186      0.000292
Li	      4.28911     12.67763     16.67752         0.011122      0.006836      0.002941
Li	      4.35488     12.44877     12.59135        -0.021079      0.010639      0.014887
Li	      6.17259     27.27806     29.36123         0.012585     -0.004606     -0.000975
Li	      6.27809     14.62660     16.75251         0.002134      0.005492     -0.008618
Ti	      6.25674     23.03923     25.20182        -0.031335     -0.017476      0.085979
Ti	      6.31827     25.15634     27.23578         0.011507     -0.047197     -0.000610
Ti	      4.26001     16.82689     20.84210         0.002192     -0.035679     -0.063643
Ti	      4.24077     16.78775     16.78760         0.007654      0.024865      0.079645
Ti	      6.21980     16.79424     18.83120        -0.042217     -0.007474     -0.047497
Ti	      4.25198     18.76347     18.84711        -0.040762     -0.013484     -0.008993
Ti	      2.07541     10.56985     12.57955         0.064250      0.055515     -0.006054
Ti	      0.16051     12.57061     12.57861        -0.023562     -0.028631      0.015058
Ti	      2.11895     12.59455     14.55894         0.032568     -0.024629     -0.053805
O	      2.14026     16.72930     16.79107         0.018750     -0.027803     -0.006057
O	      4.17186     16.60398     18.80180         0.037114      0.009552     -0.008023
O	      2.16048     18.87009     18.83079        -0.014567      0.022489      0.000481
O	      4.11262     18.88475     20.97592         0.010943     -0.002253      0.021793
O	      6.34865     16.82893     20.92116         0.001310     -0.022696      0.015072
O	      4.21185     20.97988     23.05111         0.008940      0.010087     -0.003298
O	      2.14982      8.38470      8.36766        -0.015644     -0.020299     -0.014616
O	      4.18996     23.02480     25.14033        -0.001095      0.006803     -0.022023
O	      6.42012     20.96921     25.08432         0.037010      0.028575     -0.023454
O	      4.23123     10.43286     12.57332        -0.032363      0.007992      0.000894
O	      6.53120     23.10172     27.20186        -0.039203      0.004677      0.024304
O	      4.14255     12.70672     14.65466        -0.022765      0.039547      0.012793
O	      2.11509     14.69534     14.69932         0.005678      0.004651      0.001686
O	      4.14894     14.75116     16.64867         0.016252      0.022693     -0.008156
