# total energy = -186.75803665 eV
 
CRYSTAL
PRIMVEC
0.000163 4.292718 4.352931 
14.018043 2.376705 17.186055 
4.005480 4.292976 4.352459 
PRIMCOORD
28 1
Li	      6.00950      8.74076     10.99358         0.000039      0.020612      0.015315
Li	      4.00633      4.43624      8.66111         0.000576      0.035403      0.026795
Li	      6.00907      4.35338     10.74311        -0.000496     -0.006013      0.022286
Li	     12.01716      8.64499     17.22884        -0.000605     -0.009262      0.004500
Li	     10.01442      4.52388     15.12651         0.001240      0.010061     -0.005723
Li	     16.02249      8.81450     21.61224         0.000612      0.006399     -0.025427
Li	      4.00716      6.35468      6.50833        -0.000033     -0.035180     -0.023472
Li	      2.00402      2.05003      4.17590         0.000238     -0.022984     -0.014575
Li	     12.01715      6.60501     15.29553        -0.000242      0.024777      0.030868
Li	     10.01415      2.27212     12.70712         0.000922     -0.023899     -0.035106
Ti	     14.01907      2.48445     17.24865         0.001364      0.302897      0.150215
Ti	      8.01255      6.39078     10.75398        -0.001806     -0.314883     -0.161130
Ti	     10.01391      6.69367     13.16077         0.001717      0.154162      0.297983
Ti	     12.01750      2.18108     14.84142        -0.002297     -0.145605     -0.299472
O	     16.02248      4.61388     19.36744        -0.001479      0.223648     -0.036919
O	      4.00704      6.54674      8.86722        -0.000852      0.001962      0.225664
O	      6.00882      6.50829     10.98546         0.003964     -0.003326      0.007852
O	      8.01190      6.61691     12.85201        -0.002245      0.020470     -0.021832
O	     10.01422      6.59557     15.00217         0.002011      0.009013     -0.315525
O	     12.01724      6.57247     17.35226        -0.001206     -0.005224      0.325118
O	     14.01953      6.55087     19.50415         0.001745     -0.022096      0.005220
O	     16.02243      6.65961     21.36942        -0.000237      0.002967     -0.004305
O	      4.00682      4.24465      6.30114        -0.001651     -0.011089     -0.202355
O	      6.00894      4.26136      8.63489         0.000400     -0.229263      0.037623
O	      8.01152      4.55557     10.84482         0.002294      0.350964     -0.021249
O	     10.01363      4.62084     13.02695         0.005529      0.061535     -0.001853
O	     12.01779      4.25426     14.97526        -0.004612     -0.059346     -0.002772
O	     14.02008      4.31913     17.15721        -0.004887     -0.336699      0.022276
