# total energy = -187.40747698 eV
 
CRYSTAL
PRIMVEC
0.209555 14.611235 14.226203 
4.272070 2.113082 6.130839 
4.391273 12.553269 12.224073 
PRIMCOORD
28 1
Li	      4.40561     12.50549     12.22654        -0.020007     -0.037327     -0.017662
Li	      2.13703      2.14770      4.07908         0.018789      0.037734      0.016881
Li	      0.06239      4.17418      4.06482        -0.001513     -0.000127     -0.000203
Li	      6.53084     16.65543     18.37141        -0.009797     -0.053867      0.024401
Li	      2.25290      6.36348      8.11394         0.005707      0.048945     -0.028225
Li	      4.37555     10.51167     14.25824         0.019283      0.035281      0.015532
Li	      6.64844     20.86641     22.40385        -0.022079     -0.035473     -0.014464
Li	      4.49763     22.90348     22.41792        -0.004053     -0.051916      0.027061
Li	      4.49373     14.72247     18.29075         0.007855      0.054092     -0.024490
Li	      6.68969     25.09032     26.46654         0.000942      0.000368      0.000336
Ti	      6.70137     27.09262     28.54378        -0.024755     -0.195115      0.042423
Ti	      4.32121      4.28571      8.11829         0.026383      0.198506     -0.039095
Ti	      4.46126     18.73024     18.36516        -0.020467     -0.199875      0.043739
Ti	      2.29078     10.53347     12.16547         0.022315      0.205635     -0.039716
O	      2.20535     16.62084     16.28296        -0.091223      0.012503      0.000070
O	      4.47627     16.85607     18.34726        -0.008697      0.196905     -0.016077
O	      6.78671     21.00602     24.42728         0.088715     -0.011329     -0.000047
O	      4.49554     18.81363     20.35510         0.000700      0.000988      0.002429
O	      6.33331      8.43470     12.16535        -0.047029     -0.004022     -0.103417
O	      4.51624     20.77130     22.36385         0.008008     -0.200122      0.011600
O	      6.50596     10.60739     14.29830        -0.005306      0.192015     -0.009254
O	      4.48112      8.33130     10.27068         0.042957      0.006086      0.103058
O	      2.25576     10.45085     10.17659        -0.001386      0.001404     -0.001092
O	      4.23711     10.37145     12.23516        -0.087978      0.011198     -0.002117
O	      2.27568     12.40844     12.18444         0.007598     -0.201686      0.014968
O	      4.54497     12.64420     14.24931         0.091372     -0.009019     -0.001674
O	      2.44923     14.58173     14.31900         0.043419      0.002053      0.096551
O	      4.30106     14.68362     16.21307        -0.039752     -0.003832     -0.101516
