# total energy = -194.89953065 eV
 
CRYSTAL
PRIMVEC
0.000194 2.098766 2.098590 
6.244833 0.070763 6.225540 
10.483613 10.448993 0.045823 
PRIMCOORD
30 1
Li	      8.40468      4.36062      8.23159         0.027737     -0.007914      0.008433
Li	     10.33558      4.32344      6.17299        -0.029610     -0.007413      0.004398
Li	      8.47379     10.43089      2.16598        -0.005830     -0.002133      0.001450
Li	      4.09074      2.14227      2.05385         0.008675      0.005831     -0.006479
Li	      8.47616      8.32314      4.27502         0.018284      0.002774     -0.004946
Li	     10.40588      8.28390      2.21559        -0.025125      0.010496     -0.008172
Li	      4.16235      0.04859      4.14809         0.000648     -0.001654      0.001548
Li	      6.27183      4.21645      6.27703        -0.025106      0.009097     -0.008002
Li	      8.50045      6.35976      6.23478         0.031802      0.028532     -0.029656
Li	     10.31124      6.28637      4.21374        -0.030919     -0.036977      0.028992
Li	     12.54025      8.42973      4.16920         0.024243     -0.011230      0.007086
Ti	     16.58451     10.54681      6.24307        -0.514080      0.067236     -0.064984
Ti	      6.44494      8.43098      2.07189         0.228989      0.164537     -0.165470
Ti	      2.22339      2.09660      4.19791         0.510226     -0.065085      0.066508
Ti	      6.12092      4.14363      2.14967        -0.242919     -0.167406      0.165715
O	      2.02544      2.02638      2.17016        -0.015763     -0.048821      0.050218
O	      4.27419      4.28057      2.01669         0.252852     -0.001183      0.006801
O	      6.28305      6.28762      2.11123        -0.001743     -0.003963      0.005475
O	      8.29046      8.29421      2.20508        -0.240867      0.003510     -0.003621
O	     10.53775     10.54718      2.04605         0.022444      0.051562     -0.050719
O	      4.03037      2.14423      4.15051        -0.474596     -0.009587      0.008979
O	      6.12507      4.33068      4.06419        -0.011030      0.157007     -0.153366
O	      8.15676      6.21573      4.28053        -0.010582      0.036386     -0.034164
O	     10.48235      8.27851      4.32022         0.015544     -0.002813     -0.003199
O	     12.52980     10.57422      4.11777        -0.003416      0.091039     -0.091688
O	      6.27814      2.07005      6.32394         0.006558     -0.089947      0.089667
O	      8.32743      4.36666      6.12793        -0.013721      0.005711     -0.000315
O	     10.65316      6.42854      6.16959         0.006075     -0.032782      0.029192
O	     12.68447      8.31495      6.38300         0.010653     -0.159217      0.157785
O	     14.77730     10.49940      6.29153         0.480576      0.014407     -0.007466
