# total energy = -91.83396593 eV
 
CRYSTAL
PRIMVEC
4.117949 -0.000024 0.000019 
-0.000011 4.288499 -4.066754 
0.000030 6.357473 1.955244 
PRIMCOORD
16 1
Li	      2.05616      6.45549     -0.14754         0.000031      0.046902     -0.025513
Li	      4.11515      8.49502     -0.10963        -0.000763      0.011155     -0.008765
Li	      2.05606      4.27838     -2.02028         0.000968     -0.009657      0.013560
Li	      4.11506      6.31732     -1.98181        -0.000200     -0.046939      0.022556
Mn	      4.11500      4.27856     -4.04794        -0.000245     -0.091405      0.060299
Mn	      2.05603      2.13744     -0.03716         0.000104      0.091735     -0.061160
Ni	      4.11500      4.30346     -0.12262         0.000674     -0.011944     -0.100496
Ni	      2.05609      8.46963     -2.00680         0.000507      0.010836      0.101044
O	      2.05602      4.06822     -0.00116         0.001737     -0.142229     -0.079015
O	      4.11505      6.29480      0.06047         0.000230      0.121429      0.091373
O	      2.05600      6.47829     -2.19039        -0.001767     -0.117554     -0.088508
O	      4.11502      8.70521     -2.12806        -0.000149      0.146950      0.073091
O	      2.05602      2.13741     -1.94361         0.000398     -0.028514      0.245062
O	      4.11503      4.27934     -2.14153        -0.003024      0.019172     -0.243330
O	      2.05600      0.10577      0.00299         0.000672      0.073752      0.003291
O	      4.11494      2.02194     -0.02183         0.000826     -0.073689     -0.003488
