# total energy = -219.02151837 eV
 
CRYSTAL
PRIMVEC
0.051364 8.386869 8.364390 
2.135234 6.302952 8.364392 
8.503439 14.755234 6.246374 
PRIMCOORD
32 1
Li	      2.22856      6.39877      8.22566        -0.001599     -0.002645     -0.003452
Li	      6.31441     18.82169     16.57732        -0.006246     -0.007523      0.024497
Li	      2.23970      8.49214     10.39804         0.005724      0.004964      0.008690
Li	      2.01487      4.09947      2.11489         0.002231      0.002110      0.040446
Li	      2.25625     10.59371     12.34377        -0.000595     -0.001199      0.011928
Li	      2.13226      6.30296      4.24736         0.009548      0.008436     -0.022211
Li	      4.28181      8.45140      4.48208         0.005867      0.003334      0.017642
Li	      6.42494     18.92776     12.72764        -0.007436     -0.006149     -0.007730
Li	      2.20363      8.45505      6.28217        -0.005095     -0.004269     -0.017632
Li	      4.28838     10.54101      6.30859         0.007423      0.007761      0.013678
Li	      8.36523     18.78663     14.53504         0.011399      0.011434     -0.025689
Ti	      2.18173     10.51570      8.42135         0.014682      0.012772      0.044643
Ti	      8.53397     21.03893     16.45307        -0.008029     -0.008476     -0.612541
Ti	      4.25615     14.67840     10.61328        -0.248986     -0.249960      0.561049
Ti	      6.48134     16.90047     10.59574         0.216256      0.218279      0.617757
Ti	      2.14907     12.57098     14.44743        -0.008681     -0.008643     -0.366410
O	      2.15284     10.48909     10.34920        -0.007174     -0.006753     -0.159808
O	      4.45232     12.79036     10.41016         0.205563      0.205325      0.030844
O	      6.40829     14.74526     10.37871        -0.003379     -0.002329     -0.027407
O	      8.36649     16.70218     10.37118        -0.185828     -0.184783      0.016969
O	      2.17354     12.59510     12.61844         0.000955      0.000685      0.410878
O	      4.32793     14.74921     12.40082        -0.014754     -0.013981     -0.566733
O	      6.39297     16.81272     12.37268         0.035364      0.036009     -0.623647
O	      8.62553     19.04724     12.51783         0.094199      0.093551      0.002765
O	      2.00427      6.17410      6.26910        -0.086531     -0.086558      0.001600
O	      4.31122     16.81467     14.78772        -0.003523     -0.001616      0.063487
O	      6.39702     18.90202     14.64972         0.002807      0.002643     -0.007145
O	      8.54838     21.05339     14.66162         0.001601      0.002795      0.562357
O	      2.24610      8.49904      8.35761         0.058228      0.057427      0.029479
O	      4.17359     10.42611      8.42901        -0.086815     -0.084208     -0.017480
O	      6.51723     12.77067      8.43207         0.101380      0.099236     -0.011109
O	      8.42190     23.01046     16.77195        -0.098553     -0.097667      0.010288
