# total energy = -126.02867115 eV
 
CRYSTAL
PRIMVEC
-0.081635 4.206292 4.226700 
4.133056 0.001865 4.142907 
6.237868 4.162096 2.035106 
PRIMCOORD
16 1
Li	      3.98412      4.22646      8.28208         0.003254      0.001380      0.003773
Li	      2.07738      4.16767      6.33909        -0.009068      0.014466     -0.014050
Li	      4.08336      6.28895      6.26913        -0.016908      0.016212      0.025456
Ti	      6.13326      2.17782      4.21189        -0.014359      0.092622      0.047038
Ti	      6.17937      6.15222      4.22849         0.029427     -0.070735      0.023270
Ti	      6.14570      4.16674      6.14978        -0.023940     -0.004196     -0.058467
Ti	      1.99459      2.18045      4.10728         0.030147      0.009859     -0.084080
Ti	      4.21076      4.17178      4.21298         0.048984     -0.021822      0.046300
O	      2.09913      2.06332      2.09023         0.012911      0.019736      0.018092
O	      8.21562      4.26666      6.28324        -0.028729      0.017349      0.054749
O	      4.07050      2.08545      4.15883         0.006463      0.025493     -0.036410
O	      6.32598      4.17357      4.02866        -0.011907     -0.009787      0.009225
O	      2.03598      4.23400      4.17092        -0.001105     -0.037662     -0.002307
O	      8.20164      6.26810      8.29837        -0.022678     -0.003637      0.012114
O	      4.08583      4.10469      6.25516         0.006711     -0.038194     -0.038967
O	      6.13282      6.28659      6.31421        -0.009204     -0.011085     -0.005738
