# total energy = -125.90168915 eV
 
CRYSTAL
PRIMVEC
-0.000960 2.214804 2.214822 
16.286900 0.836921 16.874190 
16.286805 2.841426 14.869695 
PRIMCOORD
16 1
Li	     16.28642      5.05404     17.08722         0.006018      0.003477      0.000062
Li	      6.17782      2.52684      8.54483        -0.028537      0.003321     -0.002195
Li	     26.39853      3.36719     25.41900         0.028785     -0.003968      0.001397
Ti	     18.27202      2.94696     16.98270        -0.137927     -0.000432     -0.000155
Ti	      4.18325      2.42311      6.43415         0.030331      0.002321      0.004610
Ti	      8.14553      0.41906      8.43952        -0.007429     -0.007793     -0.007038
Ti	     28.39257      3.47020     27.52943        -0.024894     -0.001319     -0.004194
Ti	     14.30374      2.94533     16.98145         0.133774      0.003980      0.005877
O	     18.30150      3.05224     19.09230        -0.112824     -0.005099     -0.003814
O	     20.43339      3.15515     21.19893         0.173308     -0.000818      0.000942
O	     22.45681      3.26080     23.30904        -0.067888     -0.004577     -0.002987
O	      8.14442      2.52806      8.54400         0.007778      0.008273      0.009647
O	     10.11981      2.63288     10.65422         0.063872      0.003239      0.001623
O	     12.14251      2.73835     12.76451        -0.176687     -0.000994      0.001226
O	     14.27441      2.84038     14.87233         0.107981     -0.001157     -0.004673
O	     16.28766      2.94579     16.98233         0.004338      0.001546     -0.000328
