# total energy = -137.73893519 eV
 
CRYSTAL
PRIMVEC
-0.000606 2.091261 2.091503 
2.090868 -0.000654 2.091551 
19.117767 19.121684 -0.305692 
PRIMCOORD
18 1
Li	      2.09581      0.00907      2.08984         0.057802      0.054008     -0.058138
Li	      6.36236      6.36951     -0.09395        -0.047776     -0.049896      0.052852
Li	     10.61817     10.62550     -0.16395         0.007508      0.006694     -0.010689
Li	     16.96005     14.88013      1.85019        -0.010309     -0.016262      0.014056
Ti	      4.23454      4.24072      4.12569         0.075827      0.078856     -0.068113
Ti	      4.22378      4.22888     -0.04349        -0.090553     -0.085135      0.075551
Ti	      8.49518      8.49928     -0.12728        -0.093777     -0.092060      0.084495
Ti	     14.83224     12.74948      1.88578         0.007670      0.006844     -0.001799
Ti	     16.99932     19.09269      1.82132         0.091465      0.095111     -0.095716
O	      2.15885      2.16531      2.01949         0.095175      0.088995     -0.093472
O	      4.22890      4.23486      2.04085         0.003305     -0.000654      0.003990
O	      6.29916      6.30459      2.06301        -0.088933     -0.090683      0.094773
O	      8.51229      8.51693      1.94674        -0.107901     -0.107036      0.097030
O	     10.56675     10.57085      1.98178        -0.013201     -0.010447      0.021345
O	     12.75765     12.76677      1.86941         0.022202      0.020056     -0.017487
O	     14.81558     14.82420      1.90261        -0.016358     -0.014968      0.017917
O	     17.01813     17.02055      1.80183         0.006215      0.007129     -0.008718
O	     19.07310     19.07423      1.83941         0.101639      0.109447     -0.107878
