# total energy = -155.62566069 eV
 
CRYSTAL
PRIMVEC
0.000665 2.070740 2.070609 
10.418016 -0.221563 10.577357 
10.364676 4.047010 6.309334 
PRIMCOORD
20 1
Li	      2.16043      2.13215      4.07940         0.012989     -0.014543      0.017180
Li	     14.48553      1.71667     12.78144        -0.025692      0.015270     -0.013987
Li	      8.29128      1.94270      6.34391         0.008450      0.000536     -0.003378
Li	      8.35107      1.90663     10.51873        -0.006757     -0.002690      0.004565
Ti	     10.26661      4.04159      6.31484         0.025889      0.024450     -0.026524
Ti	     12.59010      4.01061     12.55818        -0.031629     -0.097797      0.092597
Ti	     14.41660      3.88477     10.61425         0.012704      0.104561     -0.099543
Ti	      6.32171      4.07614      6.27996        -0.016972     -0.025692      0.025399
Ti	     16.68913      5.93402     14.77735        -0.042915      0.043462     -0.044897
Ti	     10.31772      1.96170      8.39495         0.046405     -0.042035      0.043787
O	     12.39885      1.91608     12.58218        -0.022379      0.004507     -0.004708
O	     14.64747      3.83937     12.73044         0.015784     -0.011218      0.020023
O	      4.24361      1.93342      4.27938         0.008271     -0.012909      0.015702
O	     16.66123      3.85134     14.78958         0.056871     -0.004481      0.001024
O	      6.24702      1.95052      6.33448         0.080293      0.010321     -0.009563
O	      8.29418      4.05944      6.29692         0.006956     -0.005456      0.004841
O	      8.32103      1.92394      8.43196         0.002427      0.006340     -0.006364
O	     10.34499      4.04449      8.38271        -0.054284      0.009484     -0.007607
O	     10.39377      1.89839     10.52810        -0.060862     -0.012171      0.013741
O	     12.35865      4.05604     10.44212        -0.015551      0.010060     -0.022288
