# total energy = -156.00531008 eV
 
CRYSTAL
PRIMVEC
0.000108 2.077397 2.077524 
10.319470 -0.071695 10.459912 
8.312996 4.214363 4.096149 
PRIMCOORD
20 1
Li	     12.35566      2.05627     10.40926        -0.018635      0.011855     -0.008943
Li	     14.31164      2.16551     12.37886        -0.019144      0.012550     -0.012547
Li	      8.45072      4.02428      8.44280         0.015735     -0.012685      0.009726
Li	     10.40617      4.13271     10.40885         0.018821     -0.010619      0.010851
Ti	      8.18797      4.20570      4.10565         0.052922      0.030951     -0.036807
Ti	     10.37618      4.19999      6.18900         0.002090      0.002507     -0.001589
Ti	      4.25497      2.05620      6.25384        -0.057352     -0.031295      0.040024
Ti	      6.22045      2.09181      4.14166         0.002892      0.001645     -0.001827
Ti	      6.13523      0.01788      6.21611        -0.058613      0.017675     -0.025090
Ti	     16.62584      6.17232     14.60363         0.065810     -0.017085      0.024179
O	      2.01562      2.04229      2.11364        -0.028752     -0.016335      0.020084
O	     14.50144      4.24316     12.37819         0.023129      0.015183     -0.015308
O	      4.08972      2.09637      4.13652        -0.105062      0.012361     -0.006774
O	      6.00867      4.19584      4.11462        -0.023289      0.015369     -0.003400
O	      6.43396      2.06577      6.24555         0.021458     -0.017134      0.005364
O	      8.35119      4.16509      6.22362         0.104707     -0.010843      0.005835
O	      8.26042      1.94709      8.44145        -0.023209     -0.015962      0.015958
O	     10.42677      4.22124      8.24550         0.027381      0.010836     -0.017347
O	     10.34742      1.98082     10.48566        -0.057023     -0.016852      0.013172
O	     12.41375      4.20945     10.33391         0.056134      0.017878     -0.015562
