# total energy = -173.93714894 eV
 
CRYSTAL
PRIMVEC
-0.177953 22.898255 23.041360 
2.065507 2.081080 4.173866 
2.065007 6.245066 4.173189 
PRIMCOORD
22 1
Li	      1.96465     10.41038      8.48346         0.011552     -0.000008      0.000546
Li	      2.08383      8.32824     10.33514        -0.016799     -0.001936      0.000691
Li	      3.92033     22.89891     23.07389         0.025514      0.000472      0.004845
Li	     -0.04886     18.73643     18.78724        -0.015227     -0.001309     -0.007907
Ti	      1.82376     24.98183     27.02050        -0.015684     -0.006008      0.049531
Ti	      0.06139      2.08386      2.13185        -0.042643     -0.001494     -0.000363
Ti	      3.98427     16.65515     16.68751         0.048412     -0.001721      0.021291
Ti	      2.04947     16.65532     14.84106         0.006525      0.002727     -0.056766
Ti	     -0.01701     12.48955     12.58093        -0.001102     -0.007997     -0.003038
Ti	      3.99504     24.98169     25.10690         0.014926     -0.001482     -0.009739
Ti	      3.89001     29.14074     29.28188         0.006679      0.008395     -0.004953
O	      1.93965     24.97817     24.88995        -0.031970      0.000910      0.016423
O	      2.02972      4.16451      4.14725        -0.004540      0.006211     -0.029122
O	      2.00942      6.24658      6.19017         0.005238     -0.002931      0.004559
O	      1.99985      8.32796      8.31291         0.001224      0.004496     -0.059138
O	      2.05029     10.41008     10.50592        -0.003389     -0.003701      0.051251
O	      2.04077     12.49151     12.62928        -0.022559      0.005716     -0.000735
O	      2.01893     14.57302     14.67356        -0.002394     -0.006241      0.027920
O	      1.92511     16.65257     16.96935         0.024513      0.004838     -0.006194
O	      2.02141     18.73522     18.87467        -0.002003      0.000561     -0.015164
O	      1.93569     20.81777     20.93146         0.005485     -0.001040     -0.001440
O	      1.84939     22.89825     22.98893         0.008241      0.001544      0.017500
