# total energy = -173.78024589 eV
 
CRYSTAL
PRIMVEC
0.002923 2.218865 2.218866 
22.482874 1.218513 23.220356 
22.482926 3.218767 21.220102 
PRIMCOORD
22 1
Li	     22.50121      3.44015     25.44028         0.070686      0.003663      0.002776
Li	      6.21131      2.55222      8.55202        -0.018061     -0.001038     -0.002038
Li	     32.62536      3.77165     31.77227         0.040211     -0.003729     -0.003957
Li	     38.82063      4.10821     38.10694        -0.060907     -0.000651      0.001075
Ti	     24.48400      3.33131     23.33286         0.069813      0.003914     -0.001440
Ti	      4.21541      2.44136      6.44081         0.047046      0.005240      0.007239
Ti	      8.17920      2.66158     10.66090        -0.003366      0.007460      0.008154
Ti	     34.62000      3.87689     33.87804        -0.010621      0.020378      0.018154
Ti	     14.35808      3.00265     17.00115        -0.142394     -0.021209     -0.021121
Ti	     40.79858      4.21324     40.21254         0.005181      0.016930      0.015942
Ti	     20.52445      3.33442     23.33200        -0.002050     -0.009730     -0.005239
O	     24.52684      3.44081     25.44294        -0.133510     -0.004921     -0.009751
O	     26.65427      3.55057     27.55180         0.189019      0.000631      0.000639
O	     28.68264      3.66047     29.66151        -0.062040      0.002294      0.002321
O	     30.65963      3.77147     31.77232         0.031873     -0.012216     -0.011774
O	     32.63742      3.87958     33.88081         0.114179     -0.005019     -0.005324
O	     12.18698      2.76869     12.76834        -0.226999     -0.000174     -0.001113
O	     14.31155      2.89234     14.89064         0.107987     -0.001859     -0.001351
O	     16.33315      2.99842     16.99605        -0.114648      0.000189      0.001862
O	     18.35552      3.10485     19.10245        -0.261754      0.000160     -0.000107
O	     20.48471      3.22466     21.22181         0.247513     -0.002122      0.001597
O	     22.50722      3.33268     23.33202         0.112843      0.001811      0.003453
