# total energy = -91.51493249 eV
 
CRYSTAL
PRIMVEC
4.108898 0.000127 -0.000130 
-0.000016 0.000143 -3.964559 
2.054221 8.645519 -1.981995 
PRIMCOORD
16 1
Li	      2.05470      6.59090     -3.96618         0.000872      0.038433      0.003116
Li	      2.05469      0.05496     -1.98387         0.000051      0.016153      0.002214
Li	      4.10915      2.10855     -1.98381         0.000488     -0.015774      0.000274
Li	      2.05486      4.21863     -1.98387         0.002812     -0.036363     -0.003377
Mn	      2.05464      8.63559     -1.98351        -0.000790     -0.017645      0.000160
Mn	      2.05483      2.17383     -3.96607        -0.000508      0.013834     -0.000818
Ni	      4.10924      4.34547     -3.96637        -0.004050     -0.086636      0.000994
Ni	      4.10921      6.46347     -1.98399         0.000353      0.085259     -0.001422
O	      4.10931      4.47631     -1.98417        -0.001431     -0.199142      0.001558
O	      2.05466      6.75712     -1.98397         0.001134      0.019854      0.003050
O	      4.10932      2.05597     -3.96612         0.001703     -0.109000     -0.004697
O	      2.05487      4.05227     -3.96617         0.001204     -0.022615      0.000043
O	      2.05485      0.10852     -3.96596        -0.003483      0.099262     -0.002966
O	      4.10921      6.33263     -3.96630        -0.000182      0.204204      0.001510
O	      4.10925      0.02288     -1.98389         0.001305     -0.002845     -0.000427
O	      2.05483      2.14063     -1.98388         0.000521      0.013021      0.000787
