# total energy = -93.28662401 eV
 
CRYSTAL
PRIMVEC
0.000706 2.070589 2.070738 
14.667698 -0.125027 14.624715 
6.292085 2.059037 4.155075 
PRIMCOORD
14 1
Li	      6.29395      4.12662      6.22565         0.000861      0.000935     -0.000995
Li	      4.31989      1.99988      6.28109         0.040120     -0.002494      0.001510
Li	     12.45546      2.01646     10.40940         0.002955      0.003381     -0.003508
Li	      8.50675      1.98232     10.43958         0.002951     -0.003440      0.004735
Li	     16.64318      1.99902     14.56839        -0.038700      0.001941     -0.000298
Ti	      8.24167      2.00129      6.28086        -0.396508     -0.062575      0.058524
Ti	     12.72122      1.99765     14.56880         0.399965      0.069458     -0.064250
O	     16.81229      1.83184     16.80856         0.022427     -0.058588      0.059366
O	      4.15081      2.16796      4.04113        -0.021107      0.053801     -0.057859
O	      6.42244      2.03444      6.24847         0.434952     -0.004618      0.006335
O	      8.44111      2.11608      8.23698         0.004399      0.100530     -0.095948
O	     10.48279      1.99948     10.42486        -0.009928      0.000036     -0.001011
O	     12.52160      1.88337     12.61221         0.001743     -0.105561      0.103464
O	     14.54093      1.96465     14.60144        -0.444129      0.007194     -0.010066
