# total energy = -132.83067269 eV
 
CRYSTAL
PRIMVEC
-0.029154 6.328611 6.048388 
6.198391 2.080942 8.064294 
6.198465 2.080869 4.032119 
PRIMCOORD
18 1
Li	      2.09719      6.38977      8.06459        -0.007930      0.033773      0.000203
Li	      2.17549      2.13094      4.03213         0.000110      0.034827      0.000729
Li	     10.21059      4.14055     10.08065         0.002967     -0.037060     -0.000454
Li	      6.17989      6.30150     12.09659        -0.002919     -0.003087     -0.000452
Li	     10.26046      6.21101     12.09648         0.009118     -0.035024     -0.001353
Ti	      6.17998      8.41250     14.11282        -0.151775      0.092714     -0.000265
Ti	     10.28772      8.36677     14.11319         0.068615      0.228406     -0.001810
Ti	      6.17698      4.18845      6.04847         0.147750     -0.091021     -0.001699
Ti	      2.07075      4.23301      6.04733        -0.074942     -0.214491      0.002656
O	      8.15075      4.28600     10.08059        -0.061602      0.080613     -0.000431
O	      4.23523      1.98606      4.03221         0.068130     -0.080783      0.001203
O	      6.24871      2.10831      6.04848        -0.031642      0.041104     -0.001554
O	      8.23592      6.31482     12.09679         0.036235     -0.006673     -0.002380
O	      4.09563      4.18453      6.04819        -0.054393      0.091821      0.001971
O	      6.13727      4.16381      8.06440         0.038265     -0.035990      0.000499
O	      8.26176      8.41576     14.11254         0.061328     -0.092879      0.004005
O	      4.12318      6.28632      8.06464        -0.046897     -0.000467     -0.002696
O	      6.17911      6.30061     10.08032        -0.000420     -0.005784      0.001829
