# total energy = -221.69681325 eV
 
CRYSTAL
PRIMVEC
-0.023780 14.500761 14.542898 
4.226502 10.292754 14.601560 
4.212000 6.186859 6.253981 
PRIMCOORD
28 1
Li	      4.20978     14.43008     18.71172         0.005611      0.007043      0.016888
Li	      4.17763     16.61351     20.89171        -0.006261     -0.000732     -0.007705
Li	      4.29010     14.33412     14.56962         0.002956      0.017238     -0.006135
Li	      1.96836      8.34987     10.33990        -0.001127     -0.022590     -0.001432
Li	      2.13565     12.42279     14.62149         0.011172      0.000370     -0.017141
Ti	      8.42316     16.46993     20.84415        -0.000382     -0.016830     -0.024880
Ti	      2.08883     14.53812     16.64868        -0.026820      0.002481      0.006480
Ti	      4.25073      8.17250      8.38821         0.058058      0.055148      0.008947
Ti	      2.20198     16.57877     18.65174        -0.013961     -0.006690     -0.087093
Ti	      6.20003     24.79195     27.11711        -0.021156     -0.005169      0.031972
Ti	      2.19129      6.17276      8.26367        -0.010351      0.007123      0.025182
Ti	      4.09095     16.53005     16.71396        -0.052249     -0.027184     -0.022743
Ti	      6.39616     16.46088     18.83043         0.034067     -0.023470      0.052586
Ti	      4.20966     22.71137     27.01615        -0.027065      0.022714      0.009968
O	      6.28822     26.99417     31.15261         0.016816      0.015574     -0.005039
O	      4.28238     16.47939     18.79894        -0.001455      0.018904     -0.046298
O	      2.09439      4.11954      4.15756         0.016039      0.003535      0.003493
O	      4.09258     18.63613     20.73734        -0.010208      0.008703     -0.012537
O	      6.30253     16.54408     20.84517         0.003325     -0.000669      0.007673
O	      4.22317     20.51800     22.91363        -0.005739      0.009860      0.001897
O	      6.41004     18.56689     22.91552         0.024408     -0.014491      0.014250
O	      4.24010     22.76642     24.99083        -0.015962     -0.018005      0.009404
O	      2.02893     10.36306     10.42709         0.014159     -0.031833      0.016756
O	      4.20728     10.36202     12.46742         0.001301     -0.009863     -0.006046
O	      2.09820     12.38418     12.47992        -0.015086     -0.001350     -0.004932
O	      4.30859     12.33472     14.62059         0.010908     -0.016145      0.032936
O	      2.08234     14.43680     14.58978         0.016393      0.000626     -0.003301
O	      4.13970     14.43551     16.68286        -0.007391      0.025699      0.006848
