# total energy = -221.68930974 eV
 
CRYSTAL
PRIMVEC
0.163842 14.524848 14.655143 
4.298446 4.142816 8.428202 
4.228673 2.075480 2.139791 
PRIMCOORD
28 1
Li	      4.30852      4.19796      8.39557        -0.007367      0.028503      0.017583
Li	      4.34993      6.15993     10.42017        -0.018609      0.006967      0.018818
Li	      6.41972      6.23436      8.50731         0.005178     -0.006071     -0.011352
Li	      4.40177     12.50296     16.84632         0.004770     -0.020017     -0.015341
Li	      6.50482     12.36234     14.73624        -0.012784      0.034717      0.007525
Ti	      2.30488     14.55118     16.77725        -0.003568      0.028118      0.014861
Ti	      2.10300      2.17296      4.16398         0.001936      0.052100      0.033206
Ti	      4.43513      8.24708     12.55413         0.002321     -0.005108     -0.055581
Ti	      4.34857     10.46334     14.69170         0.000501      0.083385      0.033544
Ti	      6.35795      8.26237     10.62058        -0.052344     -0.025375     -0.001648
Ti	      6.43611     10.28792     12.63282         0.021083     -0.074539     -0.011875
Ti	      4.28439     12.44209     12.72803        -0.015282     -0.033731     -0.020813
Ti	      4.29786     14.43718     14.67441         0.046071     -0.083375      0.009937
Ti	      2.37962     12.46620     14.63766        -0.009454     -0.035989     -0.020366
O	      2.10493      2.06025      2.10219         0.015951     -0.005943      0.024702
O	      4.41002     16.61281     18.84995         0.013522     -0.005688     -0.022255
O	      2.26014      4.16184      4.31114        -0.017117      0.006221     -0.007493
O	      4.30965      4.11634      6.32471         0.040487      0.004482      0.015271
O	      2.16645      6.20743      6.30376         0.002401     -0.018966     -0.002348
O	      4.20223      6.28600      8.33795        -0.016860      0.020787     -0.017002
O	      2.17632      8.28708      8.38955         0.021863     -0.015624      0.018148
O	      4.29643      8.28690     10.49466         0.025383     -0.017469      0.029588
O	      6.47380     14.52105     18.88772        -0.010921      0.029573     -0.011410
O	      4.31506     10.35193     12.58391         0.014416      0.015177      0.015898
O	      2.20081     12.43668     12.57123         0.000052      0.012292     -0.008922
O	      4.49006     12.45848     14.84354        -0.023662      0.010184     -0.034397
O	      6.51153     18.71374     23.10349        -0.010620      0.006982      0.003174
O	      4.38390     14.54032     16.81988        -0.017346      0.008407     -0.001451
