# total energy = -157.18594019 eV
 
CRYSTAL
PRIMVEC
0.000475 2.079746 2.078752 
22.275409 -0.225135 23.097012 
12.156024 2.004098 10.472408 
PRIMCOORD
22 1
Li	     12.19518      4.02378     12.60736         0.014552     -0.006408      0.008689
Li	      2.02719      2.10027      4.13712         0.004737      0.009033     -0.012565
Li	     18.20359      1.89274     16.82050        -0.020718     -0.011020      0.009892
Li	      8.10014     -0.08085      8.39903         0.000199     -0.002997     -0.000561
Li	     10.15301      2.02450     12.52602         0.020030      0.009671     -0.009244
Li	     26.32854      1.81687     25.21345        -0.008384     -0.008313      0.007915
Li	     16.16004     -0.10859     16.73998        -0.010364      0.009397     -0.006031
Ti	     16.14521      1.96012     14.67347        -0.079693     -0.004384      0.003116
Ti	     12.21031      1.95626     14.67512         0.073473      0.006900     -0.003762
Ti	     30.23662      1.83829     29.34830        -0.234098      0.033747     -0.029675
Ti	     20.39533      1.85361     23.09473         0.239942     -0.034426      0.034461
O	     24.31019      1.97232     25.05807        -0.006455      0.089344     -0.090881
O	     26.32075      1.71972     27.38799         0.002000     -0.089379      0.082884
O	      6.08279      2.03227      6.28286         0.212382     -0.012949      0.011987
O	      8.14800      2.09987      8.29581         0.027535      0.055177     -0.055560
O	     10.12666      2.10050     10.37373         0.027836      0.089009     -0.084553
O	     12.16018      1.87045     12.68226        -0.005819     -0.074477      0.070385
O	     14.17800      1.95819     14.67467        -0.004842      0.002856     -0.000338
O	     16.19598      2.04643     16.66650         0.002942      0.073821     -0.071028
O	     18.22996      1.81670     18.97253        -0.024865     -0.090708      0.091068
O	     20.20850      1.81705     21.05063        -0.021357     -0.055436      0.056695
O	     22.27362      1.88498     23.06464        -0.209033      0.011539     -0.012893
