# total energy = -175.04790342 eV
 
CRYSTAL
PRIMVEC
-0.053186 6.048090 6.278098 
8.355018 0.000538 8.299972 
8.355137 4.032414 8.300107 
PRIMCOORD
24 1
Li	      2.15516      6.05055      8.42012         0.000095      0.000003     -0.009186
Li	      4.13341      6.04991     10.39772         0.001402     -0.000859      0.000567
Li	      6.14246      6.05058     12.38913         0.008201      0.000679     -0.014146
Li	     16.57915      8.06771     20.71386        -0.014480     -0.001003      0.002670
Li	      2.15660      4.03348      6.36242         0.012697      0.000237      0.016967
Li	     12.37978      8.06722     16.70333        -0.025766     -0.001950      0.015705
Li	     14.50766      8.06777     18.74319        -0.008678     -0.001433      0.002934
Ti	      8.42042      6.05109     14.48767         0.090930      0.001851     -0.106159
Ti	      8.40870      6.05189     10.47187         0.050591     -0.004586      0.135538
Ti	     10.39392      6.04687     12.51064         0.016633      0.000911     -0.016336
Ti	      4.11042      2.01621      6.17665        -0.057739      0.001293     -0.104012
Ti	     14.51417      6.05185     16.59276        -0.173602     -0.001473      0.052217
O	     10.37962      2.01915     10.46035        -0.116107     -0.000301      0.017788
O	      4.10210      2.01793      4.22600        -0.009998      0.002246      0.110281
O	      6.14793      2.01860      6.31208        -0.038573      0.000815      0.088114
O	      8.31392      8.06718     14.57485         0.027582     -0.000357     -0.003278
O	     10.37245      4.03526     12.50937        -0.012955      0.004079     -0.000085
O	      4.13655      4.03447      6.24251        -0.002439      0.003631      0.003822
O	      6.35384      4.03491      8.31184        -0.030758     -0.000012     -0.014134
O	      8.35585      4.03559     10.34592         0.013889     -0.002995      0.008587
O	     10.45038      6.05063     14.59210         0.045569      0.000669     -0.014203
O	     12.63112      6.05116     16.57397         0.220755     -0.000537     -0.036497
O	      6.37985      6.05105     10.24410         0.031691     -0.000375     -0.099270
O	      8.29534      6.05143     12.45099        -0.028941     -0.000533     -0.037881
