# total energy = -192.85085703 eV
 
CRYSTAL
PRIMVEC
-0.000305 2.068445 2.069080 
26.674031 -0.136223 27.030238 
14.409151 2.062368 12.418424 
PRIMCOORD
26 1
Li	     26.72213      3.96683     27.06273         0.007598     -0.017990      0.016889
Li	     28.72200      1.92856     27.03376         0.007960     -0.003951      0.006461
Li	     30.80938      1.94846     29.08270         0.007101     -0.005690      0.006714
Li	     32.87660      4.03538     33.20135        -0.000247      0.000993     -0.000590
Li	     20.53618      1.99174     22.83235        -0.009863      0.006152     -0.006623
Li	     22.62088      2.01279     24.88043        -0.005701      0.002488     -0.005298
Li	     24.62132     -0.02539     24.85138        -0.004785      0.016527     -0.016619
Ti	     14.27928      2.06155     12.41876        -0.067158      0.022247     -0.029261
Ti	     16.46224      4.06091     16.62678         0.030275     -0.027100      0.036091
Ti	     18.56098      4.05756     18.69881         0.024583     -0.022890      0.023547
Ti	      6.10929      0.01926      6.18582        -0.028835      0.017963     -0.018358
Ti	      8.20789      2.08397     10.32690        -0.036556      0.036878     -0.047801
Ti	     10.38992      2.01553     12.46477         0.068912     -0.023823      0.031107
O	     28.64418      1.85135     29.17979        -0.001832     -0.001893      0.009145
O	     30.72298      1.88393     31.21558        -0.089686     -0.022210      0.025276
O	     32.88497      1.93404     33.23288        -0.025825     -0.025967      0.032011
O	      8.24588      2.05712      8.28387         0.001397     -0.032809      0.048195
O	     10.26093      2.01567     10.39551         0.005724     -0.022814      0.038769
O	     12.33484      2.03850     12.44186         0.004186      0.000696     -0.000291
O	     14.40881      2.06141     14.48790        -0.007318      0.024747     -0.038411
O	     16.42434      2.01974     16.60000         0.001322      0.025969     -0.039843
O	     18.45918      2.00617     18.68248         0.023286      0.031435     -0.039486
O	     20.62112      2.05652     20.69962         0.096174      0.023019     -0.026605
O	     22.69917      2.08917     22.73460         0.004150     -0.000373     -0.005869
O	     24.67005      2.08575     24.80801         0.023851      0.052215     -0.076260
O	     26.67390      1.85511     27.10589        -0.028712     -0.053817      0.077112
