# total energy = -245.27894967 eV
 
CRYSTAL
PRIMVEC
0.004711 4.235516 4.117068 
16.442131 2.147565 18.514979 
16.449727 2.152174 14.393342 
PRIMCOORD
32 1
Li	     16.29941      6.25179     18.53392        -0.018043     -0.018426     -0.005278
Li	      6.17454      4.32639     10.27641        -0.046130      0.013549      0.004753
Li	     26.64609      6.49212     28.80541        -0.017145     -0.001014     -0.003795
Li	      4.44410      2.20629      6.14858         0.033279      0.007919      0.003806
Li	      6.16083      2.16128      8.21236        -0.033945      0.008641      0.004783
Li	     26.67567      4.27392     26.74002        -0.022431      0.003304     -0.002711
Li	     30.91360      4.17365     30.85721         0.033347     -0.012330      0.002858
Ti	      2.08618      4.34708      6.22219         0.393070     -0.391269     -0.238208
Ti	      4.19724      4.32683      8.21521         0.039134     -0.247231      0.029801
Ti	     24.65045      6.37310     26.73504        -0.299818      0.077575      0.020031
Ti	     28.64878      6.33784     30.87904        -0.119625      0.005311     -0.147038
Ti	     30.68645      6.25474     32.90800         0.230237      0.316213      0.090962
Ti	     16.54937      4.10700     16.47534        -0.198513      0.372092     -0.133718
Ti	      2.11886      1.99384      4.04690        -0.162670      0.296834      0.315546
Ti	      8.20101      2.26641     10.28358        -0.391283     -0.108975     -0.018573
Ti	     12.22234      2.27685     14.40408        -0.068682     -0.163513      0.061052
O	     18.64040      4.35286     20.51049         0.058809     -0.162271      0.083742
O	     20.61116      4.32697     22.60020         0.046757     -0.013746     -0.004510
O	     22.82199      4.35036     24.66932         0.350984      0.016602      0.002911
O	     24.71103      4.29321     26.73648        -0.011532      0.046660      0.003028
O	     10.23307      2.21404     10.28634         0.092462     -0.000077     -0.002068
O	     12.28231      2.10516     12.34602        -0.038671      0.098534      0.024069
O	     14.29664      2.04604     14.40538         0.022255     -0.048537     -0.005412
O	     16.46693      6.26806     20.59133        -0.059004      0.006629      0.016990
O	     18.48776      6.28109     22.66938        -0.194572      0.165223     -0.070848
O	     20.62920      6.42946     24.66859         0.075149      0.087682      0.025061
O	     22.69287      6.44661     26.72940         0.226873      0.006762     -0.002269
O	     24.68635      6.48609     28.79704         0.044745     -0.000440     -0.003396
O	     10.21083      4.26160     12.35104         0.202170      0.008199      0.002769
O	     12.15763      4.36665     14.42281        -0.034303     -0.053457     -0.041608
O	     14.35574      4.20352     16.45884        -0.145415     -0.196000      0.047380
O	     16.41435      4.18598     18.53288         0.012509     -0.120443     -0.060108
