# total energy = -185.07317346 eV
 
CRYSTAL
PRIMVEC
-0.000133 2.090706 2.090748 
26.075351 -0.257698 27.435736 
26.075204 1.872395 25.305600 
PRIMCOORD
26 1
Li	      2.09093      2.07383      4.19960        -0.050867     -0.008641      0.000498
Li	     29.87626      1.83414     29.52812        -0.132871     -0.005420     -0.005669
Li	      8.03081      2.00767     10.53319         0.028248      0.000952     -0.002127
Li	     12.17494      1.97274     14.75079         0.034908     -0.001848      0.004742
Li	     39.98059      1.73310     40.08054        -0.048095      0.000514     -0.006982
Li	     44.12042      1.69210     44.29836        -0.026153      0.006469     -0.000881
Li	     22.27580      1.87475     25.30804         0.140848     -0.003337     -0.006464
Li	     50.06187      1.63438     50.62644         0.055554     -0.000387      0.006896
Ti	     26.07621      1.83170     29.52355         0.010176     -0.000088      0.000470
Ti	     32.06062      1.80737     31.63662        -0.682794      0.005355      0.000166
Ti	     10.05661      1.99071     12.64250         0.395135     -0.002787     -0.000699
Ti	     42.09746      1.71395     42.18766        -0.449495      0.000967     -0.000589
Ti	     20.09069      1.89359     23.19408         0.720564     -0.002016     -0.001144
O	     27.95052      1.83019     29.52432        -0.190333      0.003196     -0.000714
O	     30.26847      1.80811     31.63532         0.683264      0.003448      0.001151
O	     32.15335      1.78815     33.74669         0.055621      0.001494     -0.001423
O	     34.12123      1.76981     35.85663         0.055431      0.001462      0.001264
O	     36.07005      1.75238     37.96778        -0.002051     -0.000560     -0.001495
O	     37.95350      1.73350     40.07816        -0.401329     -0.002852     -0.000168
O	     14.19995      1.97181     14.75106         0.387725     -0.000048      0.003168
O	     16.08303      1.95239     16.86195        -0.011051     -0.003045      0.003037
O	     18.03029      1.93311     18.97252        -0.055221     -0.001917      0.002531
O	     19.99772      1.91315     21.08349        -0.058748      0.001225      0.002080
O	     21.88389      1.89268     23.19339        -0.701834      0.001398      0.002017
O	     24.20120      1.87055     25.30376         0.227137      0.003710      0.000662
O	     26.07592      1.85087     27.41356         0.016230      0.002754     -0.000327
