# total energy = -223.39096155 eV
 
CRYSTAL
PRIMVEC
-0.058598 6.116044 6.249826 
10.336181 -0.037049 10.355814 
6.198701 4.066893 6.201590 
PRIMCOORD
30 1
Li	      6.18455      6.14755      8.34550        -0.007544     -0.003979      0.020348
Li	      8.17386      6.08535     10.33387        -0.003101     -0.016632      0.010130
Li	     12.45588      6.02182     14.59219        -0.002733      0.011832      0.036490
Li	     14.35963      6.16809     16.58938        -0.026780     -0.005941     -0.005941
Li	      0.05458      3.98205      4.14802         0.026485      0.007530      0.007006
Li	      1.95960      4.13053      6.13785         0.001454     -0.013448     -0.028810
Li	      6.23784      4.06509     10.40420         0.007976      0.019771     -0.011100
Li	      8.23030      4.00110     12.39399         0.003755      0.004561     -0.026358
Ti	     10.24180      6.09222     16.55495         0.007726     -0.050592     -0.033052
Ti	      2.00570      0.03570      2.02118        -0.015693      0.019345     -0.042090
Ti	      4.07881      6.10230     10.39371        -0.000086     -0.009563     -0.002515
Ti	     12.40971     10.11356     18.71784         0.017920     -0.025954      0.044635
Ti	     14.51155      4.02308     14.53333        -0.019430      0.062945      0.043209
Ti	     10.29466      6.11512     12.48327        -0.008192     -0.036690      0.100049
Ti	      4.11665      4.03402      8.25373        -0.001226      0.042846     -0.078688
O	     12.34576      8.11512     18.67214         0.002832     -0.002549     -0.003089
O	      4.15052      2.01577      4.19807         0.000887     -0.031881      0.014722
O	      6.16191      2.00624      6.22238         0.024354      0.046173     -0.020431
O	      8.24972      8.14469     14.51316        -0.020639     -0.042895      0.020623
O	     10.26433      8.13578     16.53757        -0.004360      0.028786     -0.019460
O	     12.45563      4.01662     14.41780         0.008902     -0.031476     -0.092160
O	      4.05080      4.14964      6.21595        -0.009345     -0.004196     -0.022446
O	      6.18771      4.07714      8.24993         0.013019      0.010537     -0.005244
O	      8.35739      4.05930     10.24641         0.056697      0.021833     -0.040668
O	     10.38442      4.04012     12.37971        -0.010324      0.009172     -0.084893
O	     12.29460      6.09717     16.67583        -0.003871      0.031279      0.090513
O	      4.02947      6.11017      8.35893         0.006478     -0.001860      0.079887
O	      6.05611      6.09081     10.49049        -0.056960     -0.018187      0.038236
O	      8.22602      6.07438     12.48350        -0.003450     -0.019824      0.004833
O	     10.36662      5.99941     14.52060         0.015248     -0.000941      0.006262
