# total energy = -223.38539351 eV
 
CRYSTAL
PRIMVEC
-0.025756 10.430177 10.417987 
6.249126 6.255756 12.488163 
6.260390 2.075832 4.161703 
PRIMCOORD
30 1
Li	      6.28994      8.35476     14.59738        -0.002224     -0.001792     -0.002449
Li	      2.13554      2.18598      4.10941         0.014144      0.001090      0.005169
Li	     10.37742     14.56498     20.82180         0.004994      0.009607     -0.010599
Li	      6.23559     10.39864     16.55635        -0.002590     -0.017603      0.014711
Li	      2.12270      6.42943      8.44406         0.013390      0.020241      0.005742
Li	      4.07040      6.38877     10.37310         0.005350     -0.006634     -0.033800
Li	      8.36982     10.21417     14.63563         0.009423     -0.013652      0.038898
Li	     10.38174     10.28786     16.66828         0.002970     -0.008457      0.026481
Ti	      6.24345      6.29929     12.47647        -0.034413      0.060074      0.055654
Ti	      2.05966     10.52682     12.42523         0.033171      0.215553      0.018054
Ti	     10.34987     12.49619     18.74843        -0.087100     -0.014777      0.095812
Ti	      8.29615      6.25003     10.37617        -0.002872     -0.064524     -0.057725
Ti	     10.37053     16.61046     22.94236        -0.029598      0.012752     -0.037526
Ti	      6.28525      8.24736     10.43717         0.031574     -0.020189     -0.051926
Ti	      6.31933     14.65373     20.84102         0.110799      0.007938     -0.037577
O	      8.36263      8.22220     14.57996         0.002796     -0.268882     -0.012598
O	      4.25998     12.42189     14.57239         0.098827     -0.092474     -0.008766
O	      6.28238     12.51456     16.66718         0.029992     -0.014916     -0.022428
O	      8.33597     10.52371     16.75378        -0.001941      0.039627      0.088127
O	      4.13490      4.19929      6.30662        -0.021809      0.055491      0.024934
O	      6.14703     14.53539     18.79875        -0.046511     -0.040944      0.064701
O	      8.32118     12.54561     18.72861         0.036822     -0.006333     -0.018705
O	      4.12586      6.11645      8.21206        -0.001892     -0.053619     -0.077869
O	      6.18725      6.21428     10.33893        -0.014280     -0.065970      0.039329
O	      8.26164     14.63695     20.83793        -0.172744      0.073703     -0.015546
O	      4.23004      8.40123     10.41653         0.045164      0.143198      0.017626
O	      6.26520      8.36992     12.48051        -0.007822     -0.013816     -0.044842
O	      8.30812      6.23349     12.44378        -0.004363     -0.012063      0.031169
O	      4.18320     10.39734     12.51492         0.007899      0.005308     -0.021106
O	      6.16736     10.45129     14.55729        -0.017155      0.072063     -0.072944
