# total energy = -153.97718595 eV
 
CRYSTAL
PRIMVEC
0.000726 4.174422 4.217681 
6.167627 2.088054 8.435476 
6.169739 6.263988 4.216293 
PRIMCOORD
24 1
Li	      6.15341      2.14121      8.40941         0.007688     -0.014679      0.008363
Li	      8.22242      8.35456     12.51403         0.003137     -0.000528     -0.018073
Li	      8.19285     10.40954     10.57246        -0.019192     -0.001190     -0.006032
Li	     10.29795     10.38699     12.62456        -0.011762      0.017013      0.012622
Li	      6.12869      6.22670      8.42228        -0.024030      0.015237      0.001955
Li	      8.25399      6.29680     10.57016         0.025906     -0.002534     -0.009720
Li	      4.14682      4.21444      4.20350         0.020297     -0.016489     -0.001760
Li	     10.27716      8.43941     10.67044        -0.010633      0.026470      0.031271
Li	      6.17049      4.08825      6.45164         0.010701     -0.028028      0.033202
Ti	      4.12213      6.17341      6.21500         0.071513     -0.152730     -0.174113
Ti	      6.15801      4.26653     10.43468        -0.099472      0.170230     -0.184941
Ti	      8.22389      8.35375      8.59505         0.000670     -0.003417      0.293434
O	      2.05508      2.09001      2.17100        -0.000336     -0.002678      0.006869
O	     10.39019     10.34565     14.76631         0.118188     -0.024459     -0.007272
O	      3.99798      6.28700      8.30331        -0.085574     -0.006250     -0.059145
O	      6.28113      8.32132      8.30160         0.088334      0.010924     -0.048806
O	      6.13476      6.13827     10.57047         0.016729     -0.215524     -0.024615
O	      8.22383      8.35397     10.45206        -0.001173     -0.001707     -0.329752
O	      2.04975      4.03948      4.21325         0.019132     -0.134061      0.016330
O	     10.22299      8.35364     12.77354         0.052388     -0.047046      0.239354
O	      4.14628      4.30155      6.35077        -0.026932      0.215128     -0.027836
O	      6.05690      6.36002      6.32997        -0.094198      0.010629     -0.006428
O	      6.22223      4.17665      8.55596        -0.040333      0.045702      0.247660
O	      8.22956      6.40095      8.43215        -0.021048      0.139987      0.007433
