# total energy = -177.68638158 eV
 
CRYSTAL
PRIMVEC
-0.434393 26.064659 28.485353 
2.036002 2.010464 4.341654 
2.025528 5.998940 4.365899 
PRIMCOORD
26 1
Li	      1.72834     28.11689     32.63496         0.022326     -0.000503     -0.016456
Li	      3.84091     14.04084     15.42282        -0.044965     -0.007870      0.017218
Li	      3.84491     16.03764     17.52614        -0.029405     -0.007096      0.005407
Li	     -0.08114     10.01721     10.90815         0.028253      0.006783     -0.004486
Li	     -0.07673     12.01419     13.01083         0.042427      0.006922     -0.019361
Li	      1.60024     24.00220     24.28366        -0.019705      0.001361      0.016754
Li	      3.58668     28.01834     30.51157        -0.034476      0.006198     -0.003379
Li	      1.65897     28.05385     28.47146        -0.000139      0.000360      0.000775
Li	     -0.25775     24.10071     26.40678         0.034809     -0.005407      0.004143
Ti	      2.12705      4.05789      6.37616         0.305305     -0.007137     -0.211626
Ti	      3.84170     12.04706     13.15412        -0.322557     -0.013333      0.199206
Ti	     -0.07862     14.00801     15.27887         0.333991      0.011898     -0.185167
Ti	      1.63618     21.99634     22.05746        -0.300790      0.009541      0.202195
O	      1.51129     28.11809     30.58911        -0.309285     -0.004887      0.002772
O	      1.91473      4.04450      4.51092        -0.005508     -0.003856      0.223077
O	      2.00882      6.04967      6.68189        -0.001833     -0.006656     -0.000581
O	      1.92818      8.03993      8.51677         0.004960     -0.009506     -0.028330
O	      1.99958     10.03892     10.69096         0.032757     -0.006879     -0.242137
O	      2.00257     12.03341     13.09255         0.336944     -0.002456      0.002345
O	      1.76111     14.02137     15.34109        -0.343215      0.005977     -0.003857
O	      1.76403     16.01622     17.74287        -0.028881      0.006088      0.234072
O	      1.83548     18.01577     19.91693        -0.004725     -0.004670      0.026135
O	      1.75464     20.00450     21.75181         0.000518      0.019127     -0.000734
O	      1.84885     22.01008     23.92240         0.004787      0.004307     -0.214249
O	      1.81823     24.00130     26.32973         0.298071      0.002030     -0.004152
O	      1.66444     26.05951     28.45948         0.000338     -0.000335      0.000417
