# total energy = -91.84538263 eV
 
CRYSTAL
PRIMVEC
-0.000011 2.071707 2.071792 
4.025087 -2.102897 2.102938 
4.026828 6.309877 -6.310116 
PRIMCOORD
16 1
Li	      1.96878      2.03764      0.03218         0.008483     -0.006490      0.008607
Li	      6.08998      4.25572     -2.18674        -0.006830      0.007955     -0.008341
Li	      2.02280     -0.00633      2.07595         0.010749      0.016393     -0.016179
Li	      3.83111     -0.07075      0.07170        -0.032851     -0.021142      0.019834
Mn	      4.02622     -0.02039      4.16151         0.020220      0.024962     -0.025479
Mn	      4.05369      4.17585     -0.03482        -0.014060     -0.006686      0.006337
Ni	      2.01241      4.17139     -2.10210        -0.016871     -0.032574      0.033558
Ni	      4.12030      6.32874     -2.18808        -0.027907     -0.011763      0.012249
O	      6.10399      6.26124     -2.12035         0.152969     -0.001518      0.001309
O	      6.03084      4.12730      0.01382        -0.100844      0.105095     -0.106526
O	      4.02518      6.34945     -4.28048        -0.012401      0.112711     -0.112597
O	      2.16047      4.21429     -0.07319         0.069755     -0.106502      0.106045
O	      4.08150      4.13277     -2.06352         0.118585     -0.086291      0.086146
O	      1.86282      2.07510      2.06614        -0.049032     -0.000173      0.000550
O	      4.02031      2.22370     -0.15450        -0.113027      0.033192     -0.033068
O	      4.00513     -0.14716      2.21658        -0.006938     -0.027170      0.027555
