# total energy = -204.51093858 eV
 
CRYSTAL
PRIMVEC
-0.004599 8.348879 8.351363 
8.344635 0.001911 8.344859 
4.172410 4.174531 4.173291 
PRIMCOORD
32 1
Li	      4.14183      4.15236      4.17332        -0.012630     -0.030678      0.000639
Li	      4.17240      0.02544      4.19361         0.005492      0.032529      0.040344
Li	     10.40951      4.17065     10.45744        -0.030456      0.005788      0.022039
Li	      8.31938      2.11683     10.42813        -0.028102      0.024885      0.006651
Li	      2.10379      2.11352      4.17821         0.038769      0.027408     -0.002423
Li	      8.34325      6.23650     10.41154         0.000673     -0.018809     -0.025265
Li	     10.43242      6.23864     12.54122        -0.006326     -0.020387      0.035977
Li	      8.37123      4.17807     12.49573         0.014087     -0.000379     -0.020391
Li	      2.08641      4.20329      6.23467        -0.003821      0.019326     -0.013427
Li	      6.28308      4.15177     10.43594         0.017329     -0.020186     -0.002201
Li	      0.02611      6.25765      6.28690         0.017013      0.006203      0.029211
Li	      2.06055      6.26733      8.32725        -0.035467     -0.003704     -0.031978
Ti	      6.25756      4.17741      6.26270         0.001235      0.005273     -0.008352
Ti	      8.34078      8.35157     12.52167        -0.004397     -0.003969      0.008268
Ti	      8.33977     10.43853     14.61026         0.014001     -0.002859     -0.006565
Ti	     10.42720     10.43767     16.69639         0.009671      0.000602     -0.012940
O	     10.42787     10.33204     18.67564        -0.006710     -0.114155     -0.112468
O	      4.16924      2.08794      4.17695         0.007259      0.002030     -0.007308
O	      6.36220     10.54796     14.61092         0.108379      0.104835      0.003894
O	      8.44856     10.43914     16.58876         0.104083     -0.001344     -0.107748
O	     10.42868      4.17901     12.51960         0.000401     -0.006045     -0.002316
O	      4.27862      4.17811      6.37043         0.111903     -0.002942      0.101795
O	      6.14847      4.17699      8.24017        -0.104659     -0.000663     -0.113330
O	      8.34670      4.17813     10.43275        -0.006138     -0.003704      0.000241
O	     10.42920      6.26664     14.60691         0.005173     -0.005717      0.000606
O	      4.16816      6.15580      8.45787         0.005818     -0.102468      0.112512
O	      6.14696      6.26357     10.54489        -0.116169      0.002171      0.105728
O	      8.23364      6.37271     12.52131        -0.109206      0.107999      0.002769
O	      2.08184      8.45921      8.46085         0.000168      0.102989      0.101408
O	      4.05974      8.24268     10.43875        -0.105813     -0.105481     -0.005333
O	      6.36356      8.24329     12.52230         0.111833     -0.111785      0.000135
O	      8.34182      8.45953     14.50054        -0.003393      0.113237     -0.100174
