# total energy = -185.39860395 eV
 
CRYSTAL
PRIMVEC
0.072070 8.441522 8.439933 
6.265790 4.235508 10.588301 
6.265758 6.353747 8.470476 
PRIMCOORD
24 1
Li	      2.30704      8.54315     10.65703         0.005364     -0.017422     -0.017670
Li	     10.33426     14.71133     21.05884        -0.008652      0.013109      0.017158
Li	      2.18423      1.91642      4.03172         0.044605     -0.001730      0.000385
Li	      6.31975     12.68463     14.80058        -0.003566      0.002753      0.003071
Li	     10.38475     12.89528     19.24519        -0.047866     -0.000900     -0.002505
Ti	      6.23269      6.39083      8.50711         0.004627      0.033712      0.033128
Ti	      6.28417      6.34708     12.69811         0.001687     -0.003413     -0.004343
Ti	     10.42701     16.96575     23.31554        -0.002101      0.006844      0.006595
Ti	      6.33490      8.42030     14.77207        -0.009237     -0.041780     -0.044042
Ti	      2.14613      4.20295      6.32332         0.005363      0.054904      0.048928
Ti	     10.42041     10.60637     16.95620         0.006966     -0.044669     -0.043468
Ti	      2.21240      6.28562      8.40353         0.007803     -0.002316     -0.003525
O	      8.27980     14.76757     21.11676        -0.107527      0.008824      0.006152
O	      4.30236     10.65857     12.77443         0.024591      0.017148      0.015916
O	      6.28453     10.54052     14.77443         0.009199     -0.001412     -0.000780
O	      8.34525      8.43577     14.79039        -0.021496      0.014612      0.011454
O	      4.29951      4.26899      6.38427         0.012541     -0.017600     -0.012719
O	      6.35484     12.71170     16.94489        -0.022919      0.003688      0.002409
O	      8.26698     10.54085     16.89515         0.000745      0.027587      0.023814
O	      4.22206      6.37327      8.48847         0.026017     -0.016422     -0.014247
O	      6.26938      6.34229     10.57543        -0.000143     -0.000553      0.004523
O	      8.33758     12.59291     18.94474        -0.025626     -0.021294     -0.020953
O	      4.36078      8.48531     10.59979         0.104573     -0.007900     -0.006598
O	      6.29859      8.46911     12.70251        -0.004949     -0.005771     -0.002680
