# total energy = -180.51629474 eV
 
CRYSTAL
PRIMVEC
-0.031036 12.534976 12.397926 
4.186630 8.319522 12.424164 
4.179877 6.245270 6.210625 
PRIMCOORD
24 1
Li	      4.17001      8.45507     12.43122         0.010354     -0.011057      0.019338
Li	      4.29215     10.40531     14.46455        -0.014622      0.002601     -0.009591
Li	      1.92095     14.74688     16.52411        -0.020429      0.009177      0.004759
Li	      4.31512     10.28832     10.36548         0.024683     -0.002915     -0.007274
Li	      6.15651     10.40732     12.44551         0.010679      0.003459      0.005778
Li	      6.28475     12.36261     14.48651        -0.007227      0.019442     -0.011290
Ti	      6.25071     18.76171     20.76514        -0.052458      0.083107      0.068124
Ti	      4.16771     14.58802     18.55097         0.048644     -0.092340     -0.060343
Ti	      4.15199     14.60777     14.49857        -0.077147      0.033327      0.043955
Ti	      2.10970      8.33097     10.32293         0.010995     -0.030831      0.005185
Ti	      4.13809     16.69505     16.57514        -0.005328      0.020455      0.003434
Ti	      2.07497     10.41725     12.37423         0.062661     -0.038568     -0.057867
O	      2.14095     14.52829     14.49171         0.063514     -0.069461      0.002364
O	      4.15547     14.56281     16.53080        -0.003856      0.021998      0.013623
O	      6.34591     12.55439     16.55539         0.076955      0.074845      0.003078
O	      4.13635     16.69906     18.66211         0.014083     -0.024234      0.041685
O	      6.21570     14.60493     18.62001        -0.016130      0.046258     -0.025846
O	      4.20624     18.73836     20.69398         0.021021     -0.044262      0.025284
O	      6.27538     16.65499     20.65522        -0.023808      0.022981     -0.040022
O	      4.10846      8.26064     10.35914        -0.068131     -0.071988     -0.001949
O	      6.27708     18.78760     22.77416         0.025573     -0.016210     -0.025311
O	      4.09338     10.50147     12.39720        -0.066614      0.062806      0.000203
O	      2.11574     12.48580     12.46857         0.053980     -0.055075      0.045809
O	      4.12013     12.54229     14.41841        -0.067393      0.056488     -0.043124
