# total energy = -95.59200081 eV
 
CRYSTAL
PRIMVEC
-0.103498 6.165644 6.300896 
4.144292 2.053957 6.234937 
4.144645 6.165928 6.233422 
PRIMCOORD
12 1
Li	      4.16750      4.11171      8.21966         0.018570     -0.002549     -0.006333
Li	      6.10695     10.27584     12.61091        -0.018756      0.002282      0.006145
Ti	      8.19433      8.22083     12.38660         0.101013     -0.001528      0.034773
Ti	      2.08017      6.16670      8.44402        -0.100574      0.000865     -0.032126
Ti	      2.20256      2.05233      4.19421        -0.119292     -0.008964     -0.033361
Ti	      8.07167     12.33476     16.63658         0.120055      0.013319      0.030737
O	      2.02950      8.22281      8.38869        -0.008517     -0.000555      0.001947
O	      4.20736      8.22447     10.33899        -0.004763     -0.014571     -0.009057
O	      1.92252      4.10896      4.25745         0.007776      0.011595     -0.000427
O	      4.10042      4.11084      6.20708         0.010182     -0.003490     -0.000540
O	      1.96181      6.16568      6.30879         0.021440      0.003829     -0.017197
O	      4.16888      6.16732      8.28634        -0.027133     -0.000232      0.025438
