# total energy = -107.65993155 eV
 
CRYSTAL
PRIMVEC
-0.000350 2.091362 2.091125 
2.091286 -0.000294 2.091069 
14.872905 14.873118 -0.236046 
PRIMCOORD
14 1
Li	     14.87189     16.95717      1.85779        -0.010643     -0.006831      0.014155
Li	      4.25140      6.33649      2.02245        -0.002803      0.004948      0.006363
Li	     10.59784      8.50671      1.95607         0.003960      0.002334     -0.008884
Ti	      2.12495      2.12535     -0.02856        -0.007509     -0.009134      0.004560
Ti	      8.46600      6.37568      1.98875         0.004386      0.002414     -0.004394
Ti	     12.73907     12.73561      3.99505         0.041471      0.043870     -0.026303
Ti	     12.73057     12.72699     -0.17840        -0.029020     -0.027802      0.034427
O	      2.13925      2.13976      2.04850         0.023206      0.019999     -0.026450
O	      4.20006      4.20067      2.07770        -0.050028     -0.053340      0.052736
O	      6.39101      6.39248      1.97271         0.042565      0.039051     -0.042896
O	      8.45024      8.45132      2.00353        -0.007921     -0.007580      0.018363
O	     10.66286     10.65971      1.89003         0.037769      0.037508     -0.045236
O	     12.73551     12.73198      1.90890        -0.007105     -0.005638     -0.015257
O	     14.80590     14.80265      1.92782        -0.038329     -0.039800      0.038816
