# total energy = -108.22423072 eV
 
CRYSTAL
PRIMVEC
0.002256 2.177253 2.177221 
14.114971 0.501016 14.754637 
14.115131 2.537448 12.718262 
PRIMCOORD
14 1
Li	     14.19118      2.67864     16.93029         0.017764      0.006291      0.007464
Li	     18.14799      2.68202     16.93533         0.001003     -0.002870      0.000679
Li	     22.10603      2.82042     21.14865        -0.017338      0.000818     -0.001334
Ti	      2.04876      2.24931      4.28516         0.299114      0.002950      0.002197
Ti	     20.13431      2.75125     19.04329        -0.301940     -0.001072     -0.002860
Ti	     24.10057      2.88963     23.25308        -0.208513      0.023646      0.024771
Ti	     12.19645      2.61340     14.82893         0.205935     -0.024825     -0.019858
O	     16.16317      2.68007     16.93304        -0.081641      0.000788      0.002228
O	     18.14897      2.75066     19.04150         0.001673      0.001445      0.000130
O	     20.13499      2.82160     21.15020         0.080266     -0.001592     -0.004321
O	      8.00687      2.39079      8.50226         0.213978     -0.003956     -0.008823
O	     10.01687      2.46006     10.60658        -0.096512     -0.004028     -0.008441
O	     12.16476      2.54209     12.72116         0.096981      0.000270      0.002446
O	     14.17536      2.61068     14.82604        -0.210770      0.002135      0.005723
