# total energy = -138.19503997 eV
 
CRYSTAL
PRIMVEC
-0.005947 6.263920 6.204082 
6.288489 2.082916 8.271206 
6.288554 2.082360 4.135697 
PRIMCOORD
18 1
Li	      6.31348      2.16463      8.27321        -0.011376      0.000650     -0.002244
Li	      8.22237      8.46404     12.40939         0.002374     -0.002841     -0.000030
Li	      6.28514      3.91419      6.20554         0.009154     -0.010529     -0.002024
Li	      4.33787      2.05112      6.20530        -0.003247      0.010151     -0.000211
Ti	     10.42661      8.37817     14.47779         0.027182      0.225048     -0.006546
Ti	      2.09529      2.17371      4.13696         0.009878     -0.001054      0.001382
Ti	      6.37776      6.31177     12.40802        -0.019931      0.173819      0.006756
Ti	      8.33233      6.21476     10.34253        -0.004152     -0.080568     -0.003943
Ti	     10.45978      6.21066     12.40803        -0.056047     -0.168221      0.005325
O	      8.35841      4.16849     10.34087         0.011369      0.057865     -0.000072
O	      4.16378      2.06782      4.13739         0.077172     -0.056468      0.000164
O	      6.28396      8.20651     12.40918        -0.010960     -0.201754     -0.000492
O	      8.42294      6.42032     12.41031        -0.069392     -0.065246     -0.007005
O	      4.17563      4.14556      6.20483        -0.049535      0.097758      0.003022
O	      6.25395      4.20648      8.27295        -0.014831      0.053410      0.000967
O	      8.45223      8.33977     14.47696         0.039594     -0.100346      0.003333
O	      4.24651      6.26285      8.27409        -0.053657     -0.019867     -0.002998
O	      6.25084      6.21670     10.34068         0.116404      0.088193      0.004615
