# total energy = -138.07283804 eV
 
CRYSTAL
PRIMVEC
-0.000530 2.087963 2.088864 
18.450610 -0.189631 18.984561 
4.099908 2.087169 2.088636 
PRIMCOORD
18 1
Li	      8.19955      1.92504      6.43215        -0.000239     -0.012898      0.009668
Li	      6.15018      0.06199      6.20353         0.002706      0.016293     -0.016892
Li	     16.40129      1.88350     14.82629        -0.000532     -0.003110      0.000510
Li	     16.40037     -0.08550     16.79272         0.000635     -0.002178     -0.000662
Ti	     18.44931      1.89978     21.06902         0.000539      0.028467     -0.003295
Ti	      2.04896     -0.00625      2.09975         0.000225     -0.036480      0.010778
Ti	     12.30066      4.07890     12.62158        -0.000559      0.037509      0.003834
Ti	     10.25146     -0.10183     10.55039        -0.000079     -0.044843      0.012166
Ti	     14.35156     -0.14520     14.76521        -0.003332     -0.000381      0.000386
O	     20.49940      1.93423     21.04101         0.001713     -0.001748     -0.016271
O	      4.09842      2.06365      4.19787         0.005884      0.002190      0.017497
O	      6.14904      2.15867      6.19454         0.001800      0.053814     -0.041472
O	      8.20038      1.91449      8.52866        -0.001047     -0.045390      0.033797
O	     10.25105      2.00998     10.52670        -0.004321      0.006944     -0.037302
O	     12.30114      1.94911     12.66540         0.000563      0.007648      0.020312
O	     14.35141      1.94640     14.76230        -0.002035      0.035537     -0.025182
O	     16.40058      1.94296     16.85375         0.001768     -0.006287      0.003586
O	     18.45037      1.93831     18.94540        -0.003688     -0.035085      0.028543
