# total energy = -138.44837576 eV
 
CRYSTAL
PRIMVEC
0.000077 2.164707 2.164704 
18.090817 0.527740 18.955808 
18.090773 2.575269 16.908286 
PRIMCOORD
18 1
Li	     18.00143      2.57599     16.90899         0.016204     -0.000050      0.001559
Li	      6.11738      2.34094      8.48429        -0.004456      0.000199     -0.000555
Li	     10.07169      2.45818     12.69400         0.028890      0.000348      0.003324
Li	     32.14041      2.98747     31.65325        -0.028598     -0.002206     -0.002858
Ti	     20.00133      2.63327     19.01498        -0.336112      0.008659      0.008063
Ti	      4.11888      2.28232      6.37890         0.339661     -0.000022     -0.001913
Ti	      8.09206      2.39953     10.58926         0.201930     -0.002900     -0.003536
Ti	     12.06064      0.35291     12.63721        -0.000887     -0.000920      0.001171
Ti	     34.11985      3.04545     33.75903        -0.211592      0.000409      0.000228
O	     20.02925      2.69225     21.12163        -0.037629     -0.006289     -0.007665
O	     22.18225      2.75131     23.22874         0.030712      0.001050     -0.002014
O	     24.18912      2.81012     25.33362        -0.208879     -0.000269      0.000196
O	     26.17734      2.86859     27.43853        -0.052933      0.001840      0.004664
O	     10.06703      2.39947     10.58910        -0.026298      0.002707      0.001391
O	     12.06055      2.45891     12.69593         0.000036      0.000750     -0.000127
O	     14.05414      2.51828     14.80302         0.026688     -0.003795     -0.001598
O	     16.03423      2.57626     16.90941         0.049425     -0.000361     -0.001717
O	     18.02184      2.63397     19.01515         0.213839      0.000851      0.001386
