# total energy = -91.52773927 eV
 
CRYSTAL
PRIMVEC
0.006936 2.122709 2.085165 
3.986326 -2.133954 2.108741 
3.926227 6.371437 -6.244715 
PRIMCOORD
16 1
Li	      2.01728      2.11749     -0.00914         0.007346      0.002403     -0.013344
Li	      3.98434      2.30745     -2.13958         0.010705      0.000473      0.007613
Li	      5.91246      4.23479     -2.07336        -0.016827     -0.002046      0.001425
Li	      5.91864      6.29114     -4.09662         0.029727     -0.003733      0.004433
Mn	      3.94145      8.43976     -4.11743        -0.022525      0.017221     -0.017147
Mn	      3.91658      2.07837      2.07315        -0.008314     -0.005686      0.009311
Ni	      5.94327      2.15127      0.02888        -0.056965     -0.024286      0.034973
Ni	      3.98378      4.24232     -4.11507         0.081117      0.065002     -0.067901
O	      6.04973      6.33343     -2.03714         0.106506     -0.001800      0.002574
O	      5.94010      2.11910     -1.84794        -0.111337      0.077619     -0.149470
O	      3.96955      6.40566     -4.16658        -0.004332      0.037499     -0.046693
O	      1.86490      4.23413     -0.15666        -0.035176     -0.060383      0.129990
O	      3.85843      4.34016     -2.09031         0.155288     -0.080751      0.093736
O	      2.00770      2.14580      2.03620        -0.004289     -0.013024      0.016963
O	      4.00308      1.93648      0.09975        -0.130736     -0.003079     -0.008552
O	      3.98695      0.00060      2.03886        -0.000190     -0.005430      0.002087
