# total energy = -155.89774074 eV
 
CRYSTAL
PRIMVEC
0.000114 2.105729 2.105867 
4.166317 -0.050162 4.262018 
12.311643 10.443733 2.191646 
PRIMCOORD
20 1
Li	      0.10683      2.11976      2.09436        -0.011705      0.021177     -0.020789
Li	      6.08493      1.94635      4.37161         0.016429      0.002144      0.001180
Li	     10.43077      8.43520      6.30550        -0.016086      0.002589     -0.000165
Li	     12.24066      8.31447      4.32326         0.017946     -0.021430      0.018473
Ti	      8.26254      6.24045      6.39562         0.012334     -0.005244      0.004819
Ti	     14.31389     10.37297      4.37040        -0.052508     -0.073609      0.072987
Ti	      4.19874      4.22251      4.20182         0.092319      0.012269     -0.015554
Ti	      6.17132      4.16453      2.15425        -0.001604     -0.001453     -0.000832
Ti	      8.15212      6.21158      2.21386        -0.097704     -0.009753      0.004864
Ti	     10.34647     10.50463      4.23772         0.048770      0.070611     -0.069811
O	      2.11539      2.02067      2.19366         0.030794     -0.027887      0.022131
O	      3.99133      4.19979      2.11859         0.007731      0.004017     -0.004991
O	     10.29867      6.26413      6.37228         0.011354     -0.036172      0.041055
O	     12.41950      8.25515      6.48748         0.072389     -0.001012      0.005749
O	     14.41365     10.41377      6.43500         0.001319     -0.002805      0.003314
O	      4.09658      2.12847      4.19013        -0.063707      0.006477     -0.008759
O	      6.22107      4.12091      4.30327        -0.010562      0.041487     -0.038147
O	      8.35397      6.23070      4.29998        -0.017666     -0.007861      0.008474
O	     10.23406      8.41215      4.22401        -0.037950      0.027165     -0.023737
O	     12.33040     10.43876      4.30437        -0.001895     -0.000709     -0.000262
