# total energy = -155.67857843 eV
 
CRYSTAL
PRIMVEC
-0.000583 2.108397 2.109275 
10.259450 0.015110 10.528256 
8.232908 4.240284 4.192701 
PRIMCOORD
20 1
Li	     18.37701      4.28013     14.69752        -0.025951     -0.019951      0.018637
Li	      4.24146      4.15296      4.28282        -0.009718      0.002682     -0.003298
Li	      6.18733      4.38828      6.15254         0.005103     -0.009489      0.011989
Li	     10.27616      4.13359     10.62704        -0.023531      0.026138     -0.027038
Ti	     12.28280      2.09501     10.55891        -0.022214      0.007666     -0.003403
Ti	      2.04805      0.02857      2.08816        -0.031510      0.001340     -0.021104
Ti	     12.40351      6.30567     10.56122         0.080895      0.065401     -0.059734
Ti	      6.13667      0.02761      6.30133         0.030101      0.001867     -0.006273
Ti	      8.17334      2.10502      6.32617        -0.039040     -0.060985      0.056464
Ti	      8.20986      2.15250     10.49908        -0.019934      0.034490     -0.027078
O	      2.06200      2.11328      2.10787        -0.015547     -0.005178      0.001704
O	     14.36137      4.23318     12.63650         0.016322     -0.000207      0.003582
O	      4.09802      2.05730      4.26654        -0.008848      0.004123      0.017887
O	     16.42104      4.36296     14.61482        -0.011060      0.023892     -0.032321
O	      6.17501      2.16614      6.27108         0.011515     -0.013264      0.000163
O	      8.24141      4.19003      6.34984         0.038773      0.018590     -0.013340
O	      8.31042      2.13934      8.40193        -0.034082      0.009764      0.005966
O	     10.28087      4.27742      8.38233         0.036719     -0.041103      0.041757
O	     10.25754      2.11597     10.53623        -0.010520     -0.001845      0.000508
O	     12.21667      4.20846     10.55271         0.032526     -0.043931      0.034932
