# total energy = -191.68285582 eV
 
CRYSTAL
PRIMVEC
-0.007839 6.259702 6.279708 
8.459551 -0.015293 8.379043 
4.223005 4.166935 4.187820 
PRIMCOORD
24 1
Li	      2.17930      6.25914      8.38115         0.005491     -0.014590     -0.022093
Li	      4.21235      6.37706     10.32594        -0.001189     -0.007140     -0.000053
Li	      4.24935      8.22596      8.45304         0.002416      0.001954      0.000175
Li	      6.17046      8.39890     10.52743        -0.000741     -0.011422     -0.000622
Ti	      8.40626      0.10217      8.39419         0.054412      0.000271     -0.021284
Ti	      6.37867      6.20075     12.43066         0.011315      0.043678     -0.083339
Ti	     12.62104      6.19266     14.56070        -0.012098      0.001548     -0.062437
Ti	      6.38980      6.22321      8.46892         0.039932      0.018723      0.111277
Ti	      8.32584      6.20120     10.48781         0.026734      0.010317     -0.003769
Ti	      6.51727      1.99406      8.38400        -0.015456      0.017698      0.005784
Ti	      8.35684      8.26993     12.63281        -0.034890     -0.006934      0.052557
Ti	      6.42992      4.26434     10.49640        -0.043614     -0.025407      0.020045
O	      2.10190      2.04235      2.13082         0.008796     -0.001607     -0.001747
O	      4.18142      2.11547      4.21727        -0.064343      0.030682      0.030629
O	      6.30231      2.07371      6.30712        -0.005198      0.009510      0.012090
O	      8.57007      8.52011     14.62980        -0.044458     -0.004304     -0.005053
O	      2.08742      4.12558      4.15596         0.002923     -0.018691     -0.010960
O	      4.17353      4.14192      6.30337         0.016849      0.011578      0.007375
O	      6.32590      4.13409      8.37278         0.006108      0.026977      0.011472
O	      8.48769      4.12729     10.46626        -0.017821     -0.013734      0.017117
O	     10.54075      6.25804     14.66589         0.007407     -0.006582     -0.007995
O	      4.28839      6.16693      8.28587         0.000675     -0.002820     -0.035863
O	      6.22087      6.38428     10.44197         0.034185     -0.031215     -0.025948
O	      8.52572      6.16322     12.59277         0.022564     -0.028490      0.012643
