# total energy = -238.44339618 eV
 
CRYSTAL
PRIMVEC
-0.000150 2.079508 2.079530 
31.749727 -0.291058 31.482816 
4.229351 2.075466 2.083404 
PRIMCOORD
30 1
Li	     35.97221      1.78599     33.56313         0.012666     -0.007618      0.007738
Li	      8.43618     -0.06100      8.37596         0.018946     -0.005390      0.008748
Li	     19.04828      3.90769     18.96503        -0.000991      0.040671     -0.041509
Li	     16.93788      2.03438     18.76116        -0.000494      0.032830     -0.032056
Li	     27.54055      3.92418     27.26699        -0.011930     -0.009574      0.009262
Ti	      6.30217      2.03231      4.20446         0.030413     -0.092515      0.090108
Ti	      4.51379      2.04861      6.26623        -0.040297     -0.033387      0.031762
Ti	     10.52417      2.03941      8.35629         0.022341     -0.012983      0.009085
Ti	     14.77952      1.96646     12.58864         0.020200     -0.028238      0.034282
Ti	     12.69623     -0.10951     12.58297         0.000312     -0.007918      0.002738
Ti	     23.28971      3.97484     23.06332         0.000245      0.113046     -0.110146
Ti	     21.19807      1.89503     23.05464        -0.018120      0.035877     -0.037219
Ti	     25.45532      1.82541     27.28570        -0.047519     -0.058780      0.064041
Ti	     31.45970      1.81720     29.37408         0.059726     -0.029493      0.032437
Ti	     29.67033      1.83692     31.43359        -0.034123      0.009552     -0.012491
O	     33.86064      1.78906     33.56005         0.002238     -0.022677      0.024094
O	      4.22782      2.07327      4.16240         0.002208     -0.016857      0.022876
O	      6.64185      2.03736      6.27928         0.021525     -0.024624      0.024342
O	      8.45364      2.01719      8.37701         0.002577     -0.023932      0.031811
O	     10.56414      2.01634     10.45835        -0.007315      0.003919     -0.002973
O	     12.66617      2.01434     12.53910         0.012406     -0.032925      0.024147
O	     14.80894      1.94727     14.68673        -0.002017      0.070060     -0.059821
O	     16.92575      2.04642     16.66699         0.000862      0.173776     -0.171097
O	     19.05906      1.81472     18.98056         0.000040     -0.023412      0.018079
O	     21.17653      1.91315     20.95795        -0.000386      0.037813     -0.045368
O	     23.31128      1.85073     23.10577        -0.006258      0.016249     -0.013007
O	     25.41634      1.84712     25.18483        -0.004097     -0.041105      0.039389
O	     27.52489      1.84759     27.26457        -0.013281     -0.020747      0.014240
O	     29.33147      1.83023     29.36017        -0.011439     -0.020832      0.021164
O	     31.74490      1.79408     31.47665        -0.008439     -0.020785      0.015346
