# total energy = -256.77877759 eV
 
CRYSTAL
PRIMVEC
-0.001050 2.113468 2.113314 
4.182949 -0.049110 4.273571 
16.474351 16.838155 0.060570 
PRIMCOORD
32 1
Li	      4.27349      2.16227      6.28903        -0.005215     -0.006998      0.007506
Li	      1.90880      2.01407      0.10046        -0.006546      0.006995     -0.005689
Li	      6.18409      8.42113      2.14290        -0.006493      0.014714     -0.011200
Li	     14.62408     12.68539      6.33100         0.012575     -0.010801      0.008843
Li	     12.25810     12.53443      0.14635         0.008658      0.009899     -0.010187
Ti	      4.17774      6.23713      2.21603        -0.004113     -0.064371      0.061133
Ti	     12.36639      8.45783      4.21749        -0.015257      0.057116     -0.056940
Ti	     14.41810     14.72929      0.06070         0.007222     -0.002065      0.000237
Ti	     18.46277     16.74573      2.26442        -0.105510      0.004040      0.006144
Ti	      4.18283      4.25287      4.20031         0.050199      0.089420     -0.089824
Ti	      6.07244      4.19098      2.14277        -0.017194     -0.003379      0.012196
Ti	      8.28216      8.40542      4.27138        -0.003944     -0.001639      0.000737
Ti	     10.45929     10.50381      4.28915         0.015776     -0.003801     -0.004381
Ti	     12.34920     10.44349      2.23221        -0.039776     -0.080204      0.084166
Ti	     14.54419     14.78797      4.23217         0.107823      0.008144     -0.021301
Ti	     16.50158     14.71097      2.19080        -0.014528     -0.000816      0.000811
O	      2.08293      1.99851      2.22715         0.016823     -0.005416      0.010048
O	      3.90980      4.19094      2.14922         0.038856     -0.001200     -0.005464
O	      6.23986      6.33203      2.11638         0.045422      0.003405      0.001734
O	      8.24887      8.44495      2.11905        -0.005154     -0.005598      0.010062
O	     10.29175     10.50785      2.17083         0.020309     -0.027759      0.027576
O	     12.43026     12.54706      2.24404         0.060777     -0.013795      0.011142
O	     14.31427     14.75377      2.15156         0.018325      0.017934     -0.020057
O	     16.45176     16.86587      2.14879         0.014290     -0.038684      0.035746
O	      4.10215      2.14909      4.18948        -0.062627      0.000954      0.001351
O	      6.24478      4.19142      4.25701        -0.012825      0.022546     -0.020081
O	      8.29222      6.25246      4.31056         0.003084      0.003849     -0.007602
O	     10.31451      8.35717      4.32098        -0.057468     -0.000757     -0.000129
O	     12.62270     10.50545      4.28314        -0.028647     -0.005008      0.012168
O	     14.45042     12.69662      4.20881        -0.020096      0.007237     -0.012969
O	     16.55874     14.67018      4.34583         0.003302      0.035814     -0.037709
O	     18.68811     16.77501      4.35023        -0.018050     -0.009777      0.011932
