# total energy = -113.56915209 eV
 
CRYSTAL
PRIMVEC
0.000072 2.106350 2.104145 
4.131596 -0.024097 4.232517 
8.395994 8.605198 -0.179306 
PRIMCOORD
16 1
Li	      6.37571      4.45171      6.07606        -0.045228     -0.009904      0.014250
Li	      6.15185      6.23843      0.08548         0.043271      0.011228     -0.014143
Li	      4.49944      4.45930      3.96614         0.000707      0.013915     -0.010883
Li	      6.26372      4.29303      2.02774        -0.000266     -0.001572      0.002092
Li	      8.02891      6.23260      2.19510        -0.004386     -0.015499      0.012498
Ti	      8.39682     10.70997      1.92614         0.003039      0.008861     -0.009334
Ti	      8.32922      4.27985      4.14436        -0.003854     -0.002373      0.001298
Ti	     10.46252     10.69817      4.04243         0.008063      0.004318     -0.006511
O	      2.00915      2.00433      2.20235        -0.081216     -0.105027      0.117944
O	      4.20490      4.37300      1.94841        -0.020012      0.078597     -0.078216
O	      6.13734      6.43725      1.99217        -0.125063     -0.005835     -0.006863
O	      8.44214      8.67960      1.85344         0.070154      0.106656     -0.118799
O	      4.08681      2.00502      4.30547        -0.075558     -0.111532      0.128662
O	      6.38981      4.25294      4.16923         0.132551      0.006101      0.005290
O	      8.32248      6.31777      4.21301         0.021088     -0.076841      0.075651
O	     10.51981      8.68071      3.95675         0.076711      0.098908     -0.112938
