# total energy = -167.82422320 eV
 
CRYSTAL
PRIMVEC
0.000356 2.087229 2.087977 
2.087021 0.000364 2.087967 
23.406841 23.408590 -0.445607 
PRIMCOORD
22 1
Li	      2.08814      2.08653      4.17234         0.018415      0.017691     -0.013661
Li	      8.46550      6.38041      1.96569        -0.026394     -0.025949      0.031952
Li	     12.72051     10.63643      1.88579         0.009440      0.005977     -0.003094
Li	     14.89700     14.89965     -0.28046        -0.009929     -0.013133      0.003899
Li	     19.15205     21.23503      1.72137         0.011851      0.014754     -0.009859
Ti	      4.23218      4.23541      4.11677         0.052111      0.051982     -0.045385
Ti	      4.23166      4.23493     -0.05595        -0.062027     -0.063983      0.057454
Ti	      8.50742      8.50963     -0.15696        -0.009148     -0.010382      0.007279
Ti	     12.76747     14.85035      1.84421         0.006734      0.009807     -0.004593
Ti	     19.11067     17.02701      1.76309         0.008311      0.004934     -0.006313
Ti	     21.28266     23.36418      1.68104         0.005216      0.009701     -0.005924
O	      2.15739      2.16045      2.01614         0.040128      0.037272     -0.044262
O	      4.23158      4.23487      2.03089         0.000167      0.003578     -0.003611
O	      6.30645      6.30958      2.04485        -0.035932     -0.035885      0.036246
O	      8.52016      8.52282      1.91501        -0.025062     -0.026481      0.038379
O	     10.57989     10.58166      1.94921        -0.007073     -0.006095     -0.010358
O	     12.77884     12.77512      1.83128         0.036479      0.038902     -0.034608
O	     14.84375     14.83980      1.85675        -0.043141     -0.041848      0.039313
O	     17.04176     17.04506      1.74449        -0.038456     -0.041489      0.039904
O	     19.09373     19.09616      1.78104         0.038100      0.036720     -0.034998
O	     21.29509     21.29014      1.66706         0.030247      0.032144     -0.031177
O	     23.35752     23.35257      1.69454        -0.000036      0.001782     -0.006583
