# total energy = -186.41728437 eV
 
CRYSTAL
PRIMVEC
0.035147 6.156747 6.266182 
8.402067 2.010082 10.532156 
4.194643 2.063273 2.101032 
PRIMCOORD
24 1
Li	      2.04706      6.13230      8.25550         0.014688     -0.001102      0.008156
Li	      4.18629      4.04628      4.39234         0.003125      0.003777      0.007283
Li	      4.25077      2.13117      6.23915        -0.003485     -0.010441      0.003607
Li	      4.16009      6.06636      6.35609        -0.018120      0.000167     -0.008553
Li	      2.24622      4.17027      6.24708        -0.000113      0.006958     -0.010617
Ti	     12.49101      4.09797     12.60852         0.105327     -0.001817     -0.036406
Ti	      4.29921      6.07328     10.44784        -0.016175     -0.013889     -0.004781
Ti	      6.39053      6.07562     12.50417        -0.026158     -0.016876      0.086937
Ti	      2.10399      2.11473      4.11050        -0.044927      0.040263     -0.028749
Ti	     10.56229      4.10757     10.65691        -0.024775     -0.050085      0.035269
Ti	      8.35252      6.18937     10.57919        -0.038194      0.027127     -0.076977
Ti	     10.50863      6.12059     12.60968         0.042586     -0.002132     -0.009943
O	      1.98343      1.96877      2.12907         0.010468     -0.001594      0.019928
O	      4.15190      2.00408      4.17054        -0.030811      0.011143     -0.012322
O	      6.40184      8.19003     12.64433        -0.014231      0.015186      0.016186
O	      8.46726      8.18946     14.66569        -0.012888      0.015595      0.009155
O	     10.55544      6.12830     14.71494        -0.010640     -0.017583     -0.021341
O	      4.32214      4.09416      6.40673         0.052954      0.004518      0.009214
O	      6.30418      4.09314      8.37419         0.002777     -0.007763      0.013950
O	      8.43064      4.08395     10.52005        -0.000572      0.012196     -0.017875
O	     10.47310      8.25161     16.71040         0.012045     -0.004403     -0.006721
O	      4.18471      6.19155      8.38845        -0.003607     -0.001415      0.028347
O	      6.31649      6.21051     10.39018         0.018232      0.001029      0.055309
O	      8.43605      6.04961     12.71754        -0.017503     -0.008861     -0.059056
