# total energy = -186.42392804 eV
 
CRYSTAL
PRIMVEC
0.002132 4.221663 4.171484 
12.449193 2.104236 14.611993 
10.372464 2.107507 8.350947 
PRIMCOORD
24 1
Li	     10.31007      6.26689     12.48625         0.001277     -0.010826      0.020893
Li	     16.66953      6.22582     18.79447         0.018640     -0.006594      0.006234
Li	      8.29495      4.30971     12.43250        -0.015785      0.002243     -0.005240
Li	      2.16578      2.18148      4.30516        -0.023330     -0.001617     -0.034707
Li	     18.60518      4.22145     18.75874         0.041993     -0.010782     -0.003498
Ti	      2.04343      4.34580      6.19639         0.002098      0.033573     -0.010423
Ti	      4.19428      4.18012      8.34926         0.035031     -0.071122      0.050547
Ti	     20.70759      6.29587     22.90360        -0.046943      0.031413     -0.028865
Ti	     10.41187      4.08726     10.50882         0.022723     -0.011822      0.028496
Ti	     14.57951      4.21699     14.74132         0.006674      0.014923      0.006487
Ti	     16.55475      4.21124     16.66741        -0.040527      0.015742      0.027719
Ti	     10.33868      2.16520     12.48165        -0.017652     -0.016917     -0.009703
O	     14.51587      4.24679     16.91886        -0.031274     -0.018299     -0.054467
O	     16.61028      4.12580     18.79135         0.000891     -0.019962     -0.011944
O	      6.24248      2.13119      6.25142         0.040107      0.000417      0.058208
O	      8.27000      2.13521      8.31781        -0.057496      0.046600     -0.053612
O	     10.31645      2.03463     10.35576         0.029475      0.049405      0.026238
O	     12.43335      6.25952     16.66101        -0.015855      0.009320      0.023021
O	     14.52754      6.37642     18.76693         0.018547      0.012258      0.004216
O	     16.61458      6.33469     20.86021         0.017034      0.005892     -0.009298
O	      6.23543      4.17871      8.35519         0.007070     -0.039959      0.000690
O	      8.35260      4.26528     10.36451         0.032055      0.030746     -0.043517
O	     10.36558      4.22503     12.54022        -0.007686     -0.040350      0.018644
O	     12.44003      4.28545     14.64190        -0.017067     -0.004281     -0.006118
