# total energy = -251.32805365 eV
 
CRYSTAL
PRIMVEC
0.010839 4.223014 4.231603 
4.215587 2.139888 6.329439 
10.513383 8.411881 2.176100 
PRIMCOORD
32 1
Li	      8.41665      6.48045      6.44065         0.003184      0.011415      0.017254
Li	     10.41075      8.26445      6.36941         0.011931     -0.004834      0.020519
Li	      4.34438      6.52920      6.36376         0.001832      0.011258      0.006511
Li	      6.34282      8.32981      6.29579         0.000047      0.001483     -0.008050
Li	      6.40976      6.35046      8.25589        -0.014322     -0.003878     -0.001356
Li	      8.30407      8.40450      4.47939        -0.005565     -0.010416     -0.014862
Ti	     14.63313     10.51482      8.42609        -0.035968      0.008994      0.025097
Ti	      6.44869      4.21589      6.32980         0.070505     -0.001900      0.017084
Ti	      2.16066      4.18354      6.30265        -0.019541     -0.048032      0.080788
Ti	      8.39142     10.56619      6.35734         0.025471      0.038496     -0.055989
Ti	     14.69662     12.71699     10.66015        -0.015223      0.001953      0.017686
Ti	      8.43703      8.41861      8.53352         0.008991     -0.110771     -0.013294
Ti	     10.56889     10.57786      8.45777         0.062183      0.047536     -0.017938
Ti	      2.15666      2.17292      4.31072        -0.021593     -0.037987     -0.035766
Ti	      4.15836      4.19373      4.27838         0.012236     -0.035439     -0.052449
Ti	      6.24993      6.33654      4.22827        -0.066146      0.067557      0.069053
O	      2.08403      2.07628      2.13694        -0.007827      0.006057     -0.014269
O	      4.22436      4.31170      2.23264        -0.000269      0.120935      0.046392
O	     10.51993      8.45775      8.44941        -0.005273      0.017457      0.027736
O	     12.60233     10.54176      8.68698        -0.011809      0.017298     -0.018543
O	      4.28441      6.33975      8.35762        -0.003651     -0.007396      0.028010
O	      6.32293      8.46401      8.47393         0.009196      0.027291     -0.000274
O	      8.41335      6.29204      4.23100        -0.000204     -0.029618     -0.033015
O	     10.54720      8.46770      4.24524        -0.016733     -0.019559      0.025343
O	      2.02233      4.23908      4.14022        -0.024499     -0.017785      0.037235
O	      4.24268      6.34268      4.33353         0.026383      0.000057     -0.035628
O	     10.49734     10.46713     10.49633         0.003407     -0.084470     -0.056968
O	     12.60755     12.67029     10.58971        -0.014820     -0.022748     -0.006372
O	      4.28405      4.24556      6.38459         0.026655      0.012613     -0.002872
O	      6.36521      6.23696      6.25230         0.001204     -0.045147     -0.069790
O	      8.40372      8.54418      6.47112         0.006326      0.062670      0.042954
O	     10.53467     10.45207      6.38224        -0.006107      0.026913     -0.024229
