# total energy = -45.04585233 eV
 
CRYSTAL
PRIMVEC
0.000039 2.090647 2.090652 
8.396173 0.000064 0.000013 
-0.000013 2.090648 -2.090653 
PRIMCOORD
8 1
Li	      2.26874      2.09238     -0.00036         0.025405     -0.000297     -0.000135
Li	      4.02469      0.00161     -0.00037        -0.076424      0.000429      0.000093
Mn	      0.10041      0.00156     -0.00027         0.155377      0.000837     -0.000144
Ni	      6.18300      2.09228     -0.00030         0.024727      0.001345      0.000152
O	      6.50850      0.00171     -0.00024         0.062678     -0.001021     -0.000221
O	      8.35656      2.09229     -0.00026         0.080034     -0.000650     -0.000202
O	      1.92099      0.00162     -0.00035        -0.087826      0.000262      0.000624
O	      4.25300      2.09226     -0.00032        -0.183971     -0.000903     -0.000167
