# total energy = -90.75375034 eV
 
CRYSTAL
PRIMVEC
-0.000704 2.100584 2.101738 
6.123417 6.387480 -4.291465 
-4.041476 2.111783 -2.111455 
PRIMCOORD
16 1
Li	     -1.95800      4.22673     -2.11497         0.002003     -0.013226      0.007910
Li	     -0.04301      6.24362     -2.05166         0.006917     -0.007479      0.011893
Li	     -1.96472      2.23000     -0.12178        -0.008393      0.002605     -0.003762
Li	      0.00924      4.34020     -0.14947        -0.036476      0.012298     -0.008754
Mn	     -3.98707      4.25595     -0.04565         0.099804      0.013738     -0.019179
Mn	      2.08192      6.33787     -4.23773        -0.018776      0.007828     -0.007278
Ni	      1.99700      4.16857     -2.07866         0.088581      0.052203     -0.047425
Ni	      4.09029      6.34527     -2.14317         0.010864     -0.010032      0.004900
O	      4.06907      6.31503     -4.21290         0.025077      0.103152     -0.104970
O	      0.15756      6.41541     -4.31498         0.069516     -0.092522      0.091149
O	      2.10156      8.53785     -4.32913         0.111405      0.069464     -0.069405
O	     -2.17526      4.23176     -0.02062        -0.080196     -0.019894      0.012258
O	      0.07985      4.21709     -2.12698        -0.173498      0.027204     -0.016462
O	      2.06543      6.37877     -2.18337        -0.109355      0.027692     -0.032290
O	     -0.03793      1.94813      0.16233        -0.006180     -0.043449      0.042612
O	      2.04286      4.32752     -0.13813         0.018707     -0.129581      0.138802
