# total energy = -144.94374962 eV
 
CRYSTAL
PRIMVEC
0.164361 20.590844 20.369201 
2.139543 2.058781 4.091263 
2.139122 6.177137 4.091067 
PRIMCOORD
20 1
Li	      4.24261     10.31148     10.26655        -0.011592     -0.007785      0.025173
Li	      4.26041     12.36360     12.22232        -0.009013      0.001194     -0.010213
Li	      0.11399      8.24621      8.17773         0.012544      0.000074      0.007910
Li	      2.27167     12.37069     14.22565         0.010175     -0.008447     -0.024880
Li	      0.25569     14.40787     14.22807        -0.022815     -0.001607      0.008288
Li	      4.28472     26.76245     26.54210         0.019644     -0.001532     -0.003633
Ti	      2.28765     22.64098     24.37550        -0.051043     -0.002313     -0.058146
Ti	      2.18677      8.37319     10.20030         0.022394      0.138936     -0.009659
Ti	      2.25216     18.52223     16.39494         0.031515      0.001779      0.072353
Ti	      2.26940     22.64223     20.38543        -0.005154      0.000196     -0.001288
O	      2.24531     22.64295     22.40154         0.011997      0.003193      0.041571
O	      2.33307     24.70159     24.40353         0.046427     -0.000705      0.016131
O	      2.02270      6.17134      6.01016        -0.061818      0.000975     -0.060313
O	      2.27687      8.22534      8.23093         0.077720      0.009639      0.076087
O	      2.18805     10.24782     10.20001        -0.010863     -0.147467      0.003671
O	      2.09862     12.34357     12.16903        -0.090515      0.010538     -0.063247
O	      2.35189     14.40744     14.39140         0.056089     -0.001682      0.051339
O	      2.20527     16.46485     16.36718        -0.028694     -0.000656     -0.021379
O	      2.29325     18.52445     18.36933        -0.003304      0.002782     -0.051471
O	      2.26945     20.58228     20.38505         0.006304      0.002887      0.001707
