# total energy = -144.77447016 eV
 
CRYSTAL
PRIMVEC
0.000085 2.072980 2.072960 
4.163233 -0.027434 4.173561 
12.571168 10.501706 1.936118 
PRIMCOORD
20 1
Li	      4.17723      2.09721      6.19481        -0.006201     -0.006321      0.007857
Li	     10.44497      6.22681      4.13748         0.006312      0.005863     -0.005774
Li	      2.25242      2.12158      4.09542         0.022209     -0.003313      0.006978
Li	      4.17634      2.08342      2.06130         0.008347     -0.009396      0.009477
Li	      6.28365      6.26626      4.09826        -0.006176      0.016093     -0.013699
Li	      8.20765      6.22940      2.06440        -0.021903      0.004721     -0.006473
Ti	      6.12334      2.05810      4.16078        -0.395963     -0.062121      0.061449
Ti	      8.50055      6.26539      6.17238         0.409070      0.070366     -0.071161
Ti	     12.56517     10.46263      6.12102        -0.026272     -0.009971      0.012870
Ti	     10.46218      8.39362      1.97169         0.013822     -0.010072      0.009416
O	      2.13453      2.17582      1.97004        -0.007704      0.090140     -0.094671
O	      4.13973      4.27257      1.94608        -0.016415      0.062481     -0.064358
O	     10.32949      6.24007      6.19768        -0.394217     -0.001128     -0.001518
O	     12.56810      8.39750      6.11281         0.054713      0.031441     -0.031959
O	     14.62293     10.43074      6.15410        -0.054707     -0.027495      0.023140
O	      4.29435      2.08365      4.13482         0.385302      0.002676      0.003265
O	      6.32176      4.07822      4.21334         0.021018     -0.055681      0.054262
O	      8.32615      6.17525      4.18915         0.008018     -0.095492      0.099940
O	     10.50139      8.41703      4.02081         0.032922      0.012738     -0.014043
O	     12.52599     10.43888      4.07238        -0.032173     -0.015529      0.015002
