# total energy = -162.85369036 eV
 
CRYSTAL
PRIMVEC
-0.074456 22.782891 22.968065 
2.042668 2.068721 4.171722 
2.039647 8.290944 6.250875 
PRIMCOORD
22 1
Li	      4.00598     10.31077     10.41832         0.000349     -0.003407     -0.011332
Li	      3.94707     16.58544     16.73156         0.002888      0.007157     -0.020853
Li	      4.01141     18.64797     18.75687         0.015996      0.003575     -0.021493
Li	      0.01104     10.35017     10.45488        -0.016921     -0.003574      0.018539
Li	      0.07505     12.41160     12.48012        -0.003299     -0.004021      0.023723
Li	      0.01477     18.68781     18.79492         0.000316      0.003223      0.004492
Ti	      2.03883     10.29666      8.33649        -0.018369     -0.014324      0.087322
Ti	      1.98272      6.23852      8.32166        -0.031950      0.003104      0.017500
Ti	      2.03944     22.76021     20.89037         0.034703     -0.013929     -0.017364
Ti	      1.98309     18.70168     20.87520         0.014982      0.019979     -0.075027
Ti	      4.01408     31.07060     31.30170         0.005702      0.001433     -0.000973
O	      2.00652     24.88386     25.07180        -0.031751      0.027424      0.009562
O	      1.94134     26.89797     27.10807         0.019025     -0.031416     -0.002811
O	      2.02560      6.16926      6.21473        -0.004349     -0.002370      0.019214
O	      1.99934      8.28220      8.30992        -0.012356      0.005239      0.015839
O	      1.99980     10.44468     10.28743         0.008557      0.025749     -0.085548
O	      2.08275     12.41789     12.35471         0.056661      0.004797     -0.075805
O	      2.01059     14.49868     14.60576         0.005969      0.004061      0.002261
O	      1.93832     16.58052     16.85758        -0.045788     -0.003486      0.068376
O	      2.02206     18.55308     18.92500        -0.005370     -0.015071      0.077698
O	      2.02208     20.71639     20.90200         0.005726     -0.009226     -0.016637
O	      1.99620     22.82974     22.99720        -0.000721     -0.004916     -0.016683
