# total energy = -215.52005413 eV
 
CRYSTAL
PRIMVEC
0.000305 2.082575 2.082639 
14.527160 -0.030096 14.610679 
10.423589 4.207923 6.206649 
PRIMCOORD
28 1
Li	     18.87367      4.24844     18.66149         0.027161      0.017985     -0.018238
Li	      6.09822      2.23909      4.00933        -0.032493      0.006057     -0.004701
Li	      8.46138      2.00762     10.48680         0.030587     -0.006924      0.009824
Li	     10.24837      1.95130      8.46210         0.005166      0.015365     -0.012403
Li	     20.63738      4.20393     16.62382        -0.027274      0.004218     -0.005670
Li	     14.54724      2.04351     12.53649         0.007805      0.010792     -0.011792
Ti	      0.13584      2.03584      2.12645         0.017647      0.016277     -0.011554
Ti	     16.76499      4.18714     16.63956         0.256696     -0.033992      0.038617
Ti	      1.98066      0.05852      2.02492         0.001549      0.027805     -0.035304
Ti	      4.27830      2.03268      6.29889         0.088030      0.017581     -0.006867
Ti	     16.57207      4.22782     12.43253        -0.036557     -0.012936      0.011865
Ti	      8.29072      2.08420      6.24744        -0.006659      0.013173     -0.006113
Ti	     12.36557      2.07879     10.41817        -0.298733     -0.039473      0.037164
Ti	     22.77052      4.18837     18.72333        -0.353681      0.000393     -0.003708
O	     16.79287      2.10196     16.64371         0.004243      0.009145     -0.017131
O	     18.62888      4.19899     16.62790        -0.288014     -0.000755     -0.000829
O	      4.08463      1.99309      4.25598        -0.016943     -0.017501      0.013391
O	     20.93321      4.17987     18.73132         0.347964     -0.001109      0.003056
O	      6.30307      2.14922      6.17978         0.072004     -0.003135     -0.002128
O	      8.38597      4.21221      6.20191        -0.013943      0.012596     -0.017590
O	      8.25422      2.11868      8.29619        -0.007760      0.009545     -0.009921
O	     10.32337      4.14845      8.34682        -0.039770     -0.005762      0.003109
O	     10.52119      2.06621     10.42989         0.308563      0.015127     -0.009075
O	     12.50943      4.19391     10.38538         0.006693     -0.014808      0.011844
O	     12.50705      2.05672     12.52339        -0.004540     -0.010292      0.002741
O	     14.46085      4.14391     12.51860        -0.053561     -0.003439      0.012530
O	     14.53134      2.03811     14.62351        -0.009400      0.006783     -0.004274
O	     16.60917      4.18170     14.56306         0.015217     -0.032719      0.033158
