# total energy = -193.31239846 eV
 
CRYSTAL
PRIMVEC
-0.081786 26.502508 27.644303 
2.025753 2.038521 4.247112 
2.025748 6.116094 4.246876 
PRIMCOORD
26 1
Li	      1.93413     28.54045     31.85855         0.010546     -0.001279      0.007335
Li	      2.01560     12.23055     10.65441        -0.012135      0.001800     -0.007736
Li	      1.99172     14.26936     12.76595         0.005902     -0.000645     -0.019268
Li	      3.89221     22.42412     23.36372         0.006836     -0.000846     -0.009194
Li	      1.97567     22.42361     21.26372        -0.003980      0.003111      0.001659
Li	      0.05933     18.34633     19.15233        -0.010559      0.001957      0.010847
Li	      1.95817     26.50183     29.74870         0.001164     -0.001496      0.020502
Ti	      2.00005      4.07629      6.34739        -0.049196     -0.000417      0.097752
Ti	      2.03352     10.19198      8.51998         0.027665      0.001666     -0.078717
Ti	      1.99680     12.23071     14.86460        -0.019579     -0.006921      0.016857
Ti	      3.96728     20.38545     21.21806        -0.065383      0.004464      0.027918
Ti	     -0.01779     20.38548     21.29548         0.067331     -0.005304     -0.026654
Ti	      1.95059     28.54055     27.65451         0.038134      0.004268     -0.047215
O	      1.97902     28.53991     29.73983        -0.000341      0.000166     -0.004387
O	      1.94788     30.57898     31.87814         0.006409     -0.000832     -0.000154
O	      2.00826      6.11471      6.38560         0.019945      0.001828     -0.035416
O	      2.02309      8.15358      8.48303        -0.012169     -0.000663      0.030824
O	      2.00111     10.19180     10.63394        -0.011926      0.002293     -0.002157
O	      1.97150     12.23078     12.77641        -0.003358      0.002753      0.011835
O	      2.02146     14.26931     14.88212        -0.020810     -0.004663     -0.004695
O	      1.95744     16.30824     16.95265         0.007178      0.001881     -0.006529
O	      2.06195     18.34693     18.98202         0.091117     -0.001183     -0.037484
O	      1.97607     20.38525     21.25777        -0.004119      0.001034      0.000859
O	      1.88869     22.42400     23.53213        -0.078821      0.000770      0.043285
O	      1.99302     24.46276     25.56350        -0.008047     -0.005359      0.000431
O	      1.92811     26.50193     27.63361         0.018196      0.001616      0.009501
