# total energy = -228.84873700 eV
 
CRYSTAL
PRIMVEC
0.031967 10.393967 10.475089 
6.284562 4.152071 10.500303 
4.178609 4.155110 4.205427 
PRIMCOORD
30 1
Li	      6.24018     14.58421     16.78661         0.009728     -0.004736      0.007056
Li	      4.35879      6.22648      6.47607         0.007483     -0.007339      0.003956
Li	      1.92315      2.07963      4.02248        -0.004231      0.007501     -0.004711
Li	      0.07478      4.11417      4.18625        -0.011493      0.005745     -0.009745
Li	      8.37300      8.30684     12.60200        -0.002357      0.000245     -0.001838
Li	      4.06643     10.32895     10.44163         0.002428     -0.011526      0.024649
Li	      2.24972      8.36977     10.53069        -0.010503      0.018999     -0.022723
Ti	      6.28732      4.16783     10.48189         0.026292     -0.009478     -0.009402
Ti	      4.24648     10.45559     14.65788         0.007515      0.035095      0.022705
Ti	      8.37485     16.62113     20.95785         0.011482     -0.007524     -0.011954
Ti	      6.27828      8.29203     10.51590        -0.006996     -0.008184      0.021880
Ti	      2.11507      6.26809      8.34000         0.042736      0.017208     -0.025382
Ti	      8.40374     10.38589     14.72166        -0.011150      0.001791      0.003859
Ti	      4.19940     12.43019     12.63324        -0.033266     -0.016720      0.020387
Ti	      8.35438     12.39626     16.81394        -0.010355     -0.028964     -0.010886
O	      8.47632     16.63434     22.98223         0.059370     -0.004353     -0.059844
O	      4.21175     12.49851     14.68886        -0.014050      0.000228      0.011522
O	      6.28569     12.44191     16.83398        -0.003448     -0.012107      0.010563
O	      2.11954      4.11509      4.23739         0.046930      0.033521      0.045758
O	      4.16316      4.19028      6.25960        -0.058762     -0.029325     -0.037393
O	      6.37055     14.55017     18.90020         0.038311     -0.028694      0.048242
O	      2.10348      6.20181      6.28448         0.010514     -0.000290     -0.006904
O	      4.12405      6.21706      8.49078        -0.075787      0.007884      0.057668
O	      6.28428      6.22927     10.49885        -0.005147      0.012740      0.005105
O	      8.41442     12.52376     18.91669        -0.014992      0.003772     -0.019916
O	      4.22235      8.32249     10.52403         0.049064     -0.039280      0.019370
O	      6.22970      8.30073     12.57329        -0.044998      0.033518     -0.052933
O	      8.37659     14.52980     20.94884        -0.046420      0.044432     -0.017974
O	      4.18358     10.32793     12.55599         0.027311     -0.022677      0.006166
O	      6.31321     10.40971     14.64003         0.014790      0.008517     -0.017283
