# total energy = -228.96932484 eV
 
CRYSTAL
PRIMVEC
-0.020615 10.374647 10.411928 
6.222391 8.270347 14.593650 
4.150342 2.061752 2.087314 
PRIMCOORD
30 1
Li	      4.16064     10.42913     14.67538        -0.001596     -0.021567     -0.010325
Li	      6.27421     14.45254     16.71079         0.001626     -0.021684      0.003024
Li	      8.21627     14.46689     18.72113         0.027919      0.001759      0.005981
Li	      4.10472      8.30793      8.40038        -0.007559      0.004548      0.016627
Li	      1.98888      6.32863      8.36535        -0.008693      0.036108     -0.007818
Li	      6.26593     16.49469     22.83667         0.002872     -0.015354      0.017802
Li	      2.11952      8.26711     10.29303        -0.003948      0.008250     -0.003309
Ti	      4.06495     12.33681     12.46980        -0.055896     -0.045655     -0.004658
Ti	      2.13448     10.32814     12.53856        -0.037947      0.049701      0.017574
Ti	      4.11292      4.16027      4.24278         0.036176     -0.016786      0.025900
Ti	      4.13090      6.18472      6.27018         0.036024      0.043295      0.021186
Ti	      2.06655      4.15351      6.25960         0.028371     -0.001122     -0.026343
Ti	      4.11341     14.52247     18.70425        -0.023395     -0.049036     -0.030468
Ti	      4.16812      6.19510     10.38215        -0.028676     -0.010048     -0.012687
Ti	      4.14698      8.36174     12.50393         0.057304      0.013611      0.002728
O	      2.01883      2.08020      2.10458        -0.001499      0.008240      0.024167
O	      4.17403     12.45620     14.53490         0.017015      0.024304     -0.019399
O	      6.23034     12.42168     16.66487        -0.011453     -0.051437     -0.012059
O	      2.06762      4.14597      4.17712        -0.005573     -0.005221      0.027329
O	      4.19837      4.05687      6.26201        -0.059068      0.031210     -0.015296
O	      6.17443     14.52051     18.74276        -0.039478      0.050686      0.014885
O	      2.07384      6.21229      6.24534         0.054973     -0.053064     -0.015089
O	      4.08130      6.25663      8.34601         0.041841     -0.016964      0.028829
O	      6.19445     16.57237     20.82809         0.006094     -0.006669     -0.052521
O	      8.27840     16.65028     22.83806         0.001031      0.107408     -0.062559
O	      4.12214      8.21195     10.51459         0.026005     -0.081904      0.057035
O	      6.23174      8.27143     12.53020         0.016032      0.015265     -0.000147
O	      8.27066     18.67764     25.03341        -0.021413     -0.030865     -0.017181
O	      4.21095     10.34886     12.50465        -0.089268     -0.006525     -0.013203
O	      6.21018     10.27739     14.62209         0.042180      0.039519      0.039994
