# total energy = -245.80402231 eV
 
CRYSTAL
PRIMVEC
0.000036 2.083812 2.083888 
16.551000 -0.161831 16.833114 
8.286084 4.178996 4.156545 
PRIMCOORD
32 1
Li	     24.74269      4.05151     20.95406        -0.005984      0.023933     -0.023333
Li	     20.83810      4.10699     20.89812         0.002641     -0.004038      0.005464
Li	      8.44679      4.11053      8.39055        -0.006071      0.002991     -0.003146
Li	     10.34078      2.02426      8.39273         0.022321     -0.005719      0.007026
Li	     12.25195      2.11712     10.38424         0.012770      0.001170     -0.001573
Li	     22.86830      6.04681     21.04298         0.015207     -0.003323      0.004701
Li	     16.39034      1.79050     14.87970        -0.011018     -0.013100      0.011499
Ti	     18.52017      1.94294     16.81076        -0.245592      0.042979     -0.042282
Ti	     10.27497      4.18128      6.23635        -0.174927      0.001730     -0.003077
Ti	      4.27025      2.08550      6.24761         0.026787     -0.043569      0.043505
Ti	      6.23649      4.13424      6.28345         0.001081      0.009401     -0.010804
Ti	      6.22056      2.03976      8.37800        -0.007147     -0.017534      0.018448
Ti	     16.45938      4.06551     12.60437         0.014246      0.024685     -0.022745
Ti	     18.66299      6.10498     16.81658         0.000451     -0.016241      0.016981
Ti	     20.62209      4.07177     16.76711        -0.016034     -0.037539      0.030870
Ti	     14.53408      4.11560     14.63817        -0.008270      0.025611     -0.025141
O	     18.67223      1.93222     18.90499        -0.040621     -0.004032      0.003777
O	     20.69086      4.09816     18.82274         0.003869      0.025342     -0.016330
O	      4.11678      2.08699      4.16207        -0.027660      0.011351     -0.001275
O	      6.23961      4.06596      4.26785         0.007930     -0.047867      0.048622
O	      6.42922      2.03784      6.29603         0.013465     -0.010751      0.006757
O	      8.37998      4.13861      6.27909         0.176038     -0.003968      0.003361
O	      8.30773      1.94396      8.47415        -0.012187     -0.014610      0.012167
O	     10.43764      4.21586      8.28562         0.034771      0.044045     -0.043765
O	     10.29224      1.91411     10.58800        -0.040539     -0.035922      0.039456
O	     12.40773      4.19643     10.38846         0.018412      0.021879     -0.019351
O	     12.44803      1.99477     12.59222         0.030144     -0.000993     -0.007818
O	     14.30340      4.12822     12.54150         0.018002     -0.002193      0.004581
O	     14.42900      2.04951     14.61985        -0.025321      0.036564     -0.033066
O	     16.59805      4.05664     14.69739         0.005858      0.028570     -0.038307
O	     16.64534      1.90864     16.84528         0.230412     -0.010144      0.009120
O	     18.47936      4.01799     16.81974        -0.013033     -0.028707      0.025674
