# total energy = -204.45873990 eV
 
CRYSTAL
PRIMVEC
-0.000009 2.085886 2.086087 
14.361764 -0.021036 14.623603 
6.224562 4.243441 2.014454 
PRIMCOORD
28 1
Li	     14.52354      2.19113     16.58534         0.030559      0.020133     -0.018923
Li	     16.27991      2.18032     14.51020        -0.031171     -0.002875      0.002341
Li	      2.04173      0.08127      2.00641         0.008740      0.018542     -0.018979
Li	      4.10313      2.11641      6.22680         0.001092     -0.008324      0.008322
Li	     12.38034      6.28373     10.40404        -0.003258      0.008495     -0.008026
Li	     14.44246      6.23515     12.54037        -0.009037     -0.016939      0.016668
Li	     16.32468      4.10579     12.58448        -0.034268     -0.019680      0.021319
Li	     14.56848      4.11741     14.65914         0.028980     -0.001243      0.001063
Ti	      4.01038      2.17212      2.00100        -0.477615     -0.011211      0.011539
Ti	      6.25636      4.19334      6.23621         0.040236      0.003613      0.003005
Ti	      8.24159      4.20039      8.31583         0.004468     -0.003121      0.004207
Ti	     10.22807      2.12130      8.31025        -0.052577      0.010052     -0.014525
Ti	     12.47451      4.14380     12.54577         0.480743      0.013862     -0.012352
Ti	     12.31179     -0.01673     12.53500         0.006306     -0.005132      0.004935
O	      2.19862      2.10775      2.06521         0.465769      0.008647     -0.004522
O	     18.56616      4.19090     16.67098        -0.007299     -0.009327      0.006987
O	      4.20852      2.19078      4.06804         0.091360      0.033244     -0.035981
O	      6.18280      4.12275      4.22166        -0.023117     -0.055458      0.053320
O	      6.16756      2.13661      6.20741         0.076456      0.053929     -0.054607
O	      8.27621      4.19012      6.24025        -0.089760     -0.042296      0.040553
O	      8.20751      2.12427      8.30576         0.100443      0.049835     -0.045543
O	     10.31614      4.17824      8.33889        -0.079282     -0.054126      0.051390
O	     10.30172      2.19232     10.32464         0.021287      0.052232     -0.050478
O	     12.27533      4.12517     10.47847        -0.090148     -0.034683      0.034679
O	     12.28157      2.10460     12.49940         0.003897      0.005977     -0.006320
O	     14.28619      4.20883     12.48118        -0.456562     -0.011160      0.006234
O	     14.21971      2.08227     14.60802        -0.204099     -0.009631      0.009922
O	     16.62881      4.21414     14.56206         0.197854      0.006645     -0.006227
