# total energy = -221.36961738 eV
 
CRYSTAL
PRIMVEC
-0.000125 2.111806 2.111689 
6.117205 0.043053 6.291663 
10.360814 10.647475 -0.089028 
PRIMCOORD
30 1
Li	      6.10345      0.22908      6.10484        -0.011149      0.007865     -0.008940
Li	      4.19672      6.34107      2.10452         0.042007     -0.016328      0.017093
Li	     12.02277      6.32516      6.34336        -0.030715     -0.026986      0.029694
Li	      4.32719      4.32760      4.11976         0.012720      0.003024     -0.004328
Li	      5.96895      4.20459      2.13044        -0.007468     -0.003197      0.003373
Li	      4.39213      2.24784      6.19845         0.024809      0.028776     -0.030803
Li	      6.10068      2.19019      4.14521        -0.040336      0.015343     -0.018365
Li	     10.31132      8.34505      6.43636         0.012886     -0.005703      0.002786
Ti	      8.22293      4.30576      8.36369         0.117067      0.051179     -0.052167
Ti	      8.34835     10.58137      2.08773        -0.014933     -0.009307      0.011399
Ti	      2.22649      2.16050      4.17301         0.495402     -0.021327      0.026372
Ti	      8.06859      6.37046      2.07555        -0.478149      0.021792     -0.024014
Ti	     10.32400      8.53598      2.02272         0.003179     -0.015238      0.009499
Ti	      8.19183      4.26934      4.17699        -0.125070     -0.047721      0.047978
Ti	     12.31156      8.59481      4.07314        -0.005856      0.010060     -0.003535
O	      2.06077      2.10190      2.12057        -0.004696     -0.026100      0.024068
O	      3.97298      4.23198      2.10301        -0.228512      0.004047     -0.005521
O	      6.26630      6.41288      2.03283         0.499534     -0.000336      0.000443
O	      8.18849      8.48733      2.07091        -0.003771      0.008032     -0.006473
O	     10.38743     10.61947      2.05023        -0.047910     -0.045054      0.040675
O	      4.02887      2.11615      4.21780        -0.499731      0.001198     -0.001046
O	      6.32402      4.29938      4.14725         0.237292     -0.002892      0.001230
O	      8.23684      6.42941      4.12848         0.006913      0.034752     -0.031288
O	     10.27363      8.56221      4.10816         0.041284      0.038919     -0.038248
O	     12.46170     10.68980      4.08957         0.003938     -0.013635      0.016111
O	      6.31054      2.15100      6.29479         0.133220     -0.000009      0.000602
O	      8.20741      4.28737      6.27046         0.003076     -0.000573     -0.000568
O	     10.10396      6.42342      6.24615        -0.131536      0.004032     -0.004328
O	     12.40423      8.65395      6.12670         0.039256      0.066275     -0.066051
O	     14.36805     10.56783      6.32410        -0.042751     -0.060887      0.064351
