# total energy = -197.39750676 eV
 
CRYSTAL
PRIMVEC
-0.000266 4.188096 4.367706 
14.228331 0.210310 15.084321 
4.065082 4.188095 4.367710 
PRIMCOORD
28 1
Li	      4.08262      4.29559      4.70119        -0.010290      0.019248     -0.042009
Li	      6.09150      4.21876      6.52234         0.018232     -0.000419      0.001299
Li	      4.08217      4.14139      8.34436        -0.010846     -0.019206      0.042104
Li	      4.08094      6.08716      6.55435        -0.001208     -0.006254      0.015914
Li	      4.08136      2.34953      6.49238        -0.002778      0.007313     -0.018503
Li	      6.09819      2.28541      8.54811        -0.002890      0.004970     -0.040997
Li	      8.11830      2.23303     10.75407        -0.003886     -0.022524     -0.048392
Li	     14.21612      6.41321     17.37771        -0.000872      0.023307      0.046236
Li	     16.26089      6.36134     19.58243        -0.001899     -0.003343      0.044179
Ti	     10.13677      8.36433     15.07972         0.003017      0.031404     -0.268939
Ti	      8.12014      0.18922      8.64053         0.006373      0.465651     -0.052243
Ti	     14.21806      8.45649     19.49154        -0.000990     -0.460321      0.048927
Ti	     16.23682      4.47066     17.41956        -0.004180     -0.031701      0.259287
Ti	      2.20614      2.12488      4.33948         0.318338     -0.007782      0.004273
O	     16.25689      2.50903     17.45812        -0.013434      0.108213      0.036516
O	      4.02356      2.12479      4.33967        -0.322648     -0.000667     -0.002389
O	      6.09371      6.13816     10.67267        -0.015578     -0.107098     -0.025077
O	      8.12573      6.18260     12.99332        -0.003995     -0.498043      0.021378
O	     10.15251      6.44562     15.10140         0.004069      0.059278      0.006408
O	     12.18573      2.20098     13.03135         0.001621     -0.054359     -0.012491
O	     14.22393      2.46346     15.13785        -0.004950      0.497862     -0.017200
O	     16.25243      4.34673     19.30569         0.004944     -0.039267     -0.239801
O	      4.06058      4.21878      6.52262         0.013846     -0.005038      0.006465
O	      6.08892      4.30142      8.82575         0.004259      0.026328      0.238046
O	      8.12129      4.18165     10.98408         0.006153     -0.011932      0.051512
O	     10.15208      4.27130     12.95554         0.004541     -0.001035      0.008846
O	     12.18442      4.37372     15.17666         0.010149      0.012730     -0.012684
O	     14.21920      4.46482     17.14783         0.004902      0.012685     -0.050665
