# total energy = -217.10676440 eV
 
CRYSTAL
PRIMVEC
0.053519 10.093223 10.478737 
6.347585 4.037637 10.510648 
6.347666 8.074766 10.510838 
PRIMCOORD
30 1
Li	      6.50644     14.13174     20.92388         0.035813     -0.000012      0.006079
Li	     10.67567     18.16917     25.36041        -0.012050     -0.001758      0.028065
Li	      6.41613      6.05687     12.57775         0.022275     -0.001236     -0.008158
Li	      8.49453     10.09274     14.80992         0.028064      0.000764      0.004817
Li	     10.58272     20.18544     27.29876         0.002025      0.001338     -0.011457
Li	      4.22844      4.03800      8.31238        -0.033871      0.001252     -0.020039
Li	      6.30783     14.13244     16.80218        -0.040963     -0.000616     -0.002696
Li	      2.12982      6.05545      8.35158         0.000508     -0.001252     -0.007534
Li	      2.07234      8.07412     10.38241        -0.017357     -0.000758     -0.018699
Ti	      8.49442     18.16796     23.15658        -0.081507     -0.001231      0.032060
Ti	      6.36124     12.11924     14.72617        -0.008077     -0.003653      0.008124
Ti	      2.23410      4.02943      6.29816         0.364400     -0.000576      0.007310
Ti	      4.24539      6.05529     10.44376        -0.010309      0.002086     -0.215936
Ti	      6.37739     12.12007     18.83612         0.055617      0.006174      0.004386
Ti	     10.63244     16.14916     23.16852         0.042794      0.001067      0.179440
O	      8.53926     16.14908     23.15960         0.026854      0.000064     -0.038405
O	      4.36672     12.11139     14.60893         0.043180      0.001696     -0.162812
O	      6.39404     12.11354     16.80286         0.026438      0.002045      0.039605
O	      8.43737      8.07398     14.74535        -0.005854      0.000477      0.026917
O	      4.11947     14.13083     16.80676        -0.357239     -0.000490     -0.007701
O	      6.37155     14.12825     18.85886        -0.014247     -0.006162     -0.007654
O	      8.47949     10.09576     16.79621        -0.003057      0.005125     -0.017360
O	      4.32038      6.05565      8.52350        -0.017969     -0.001831      0.178830
O	      6.23729      6.05648     10.36656        -0.083537      0.000576      0.005410
O	      8.34457     12.11123     18.79217        -0.094061      0.000689     -0.051136
O	      4.20585      8.07463     10.56230         0.026206     -0.003388      0.000598
O	      6.36842      8.07480     12.65206        -0.014283      0.003058     -0.000407
O	      8.61789     14.13050     21.15371         0.104129     -0.000599      0.033038
O	      4.28660     10.09295     12.57322        -0.004583      0.000418      0.010882
O	      6.37109     10.09177     14.71349         0.020663     -0.003266      0.004433
