# total energy = -235.34483455 eV
 
CRYSTAL
PRIMVEC
-0.019560 4.165374 4.165506 
16.430249 2.122101 18.627509 
4.110079 2.073029 2.072951 
PRIMCOORD
32 1
Li	      8.20020      6.23450     10.38700        -0.001077      0.009785     -0.005684
Li	      8.20025      4.19250     12.42977         0.000258     -0.013663      0.011724
Li	     18.47692      6.23766     20.74810         0.001134     -0.002856      0.003096
Li	      4.10143      4.09557      4.21528         0.000774     -0.011375      0.007460
Li	      2.04673      2.09892      4.13888         0.002234     -0.006035     -0.000154
Li	      4.10020      2.09646      6.21400         0.001516     -0.000817     -0.000760
Li	     12.31988      4.16092     12.44357         0.002015     -0.005210      0.003866
Li	     10.26797      2.14696     12.38281        -0.000529     -0.005635      0.004137
Li	     12.32190      2.18389     14.41750        -0.004537      0.007882     -0.005852
Ti	     16.43236      2.14508     18.60240        -0.013244     -0.017219      0.036232
Ti	      6.14674      6.15761      8.39025        -0.016611     -0.036025      0.052093
Ti	     10.24829      6.24432     12.45123        -0.002803      0.030108     -0.023416
Ti	     10.25540      4.24377     14.45115         0.011332     -0.009474      0.016217
Ti	     16.42320      6.25227     18.65921        -0.006883      0.051741     -0.057585
Ti	     10.25912      4.16757     10.36188        -0.000188      0.007930     -0.004630
Ti	     14.37538      2.16450     16.51037         0.000969      0.034108     -0.024200
O	      2.08207      2.01781      2.01950         0.040683     -0.011415     -0.024814
O	      4.20402      2.09648      4.03992         0.076567     -0.011678     -0.066814
O	      6.14428      2.09248      6.23376         0.009275     -0.016368     -0.017005
O	      8.21819      2.08661      8.28081        -0.007662      0.016181      0.002757
O	     10.25631      2.10624     10.36041         0.006392     -0.021291     -0.036424
O	     12.40124      6.17039     16.59554         0.054019     -0.077217     -0.017950
O	     14.37965      6.28442     18.63721         0.015240     -0.019501      0.021554
O	     16.42345      6.27173     20.72501         0.002551     -0.010455      0.001570
O	      2.01038      4.21641      4.21880        -0.033533      0.022146      0.007497
O	      3.99765      4.27017      6.21414        -0.068006      0.062677      0.009616
O	      6.16794      4.15000      8.29196        -0.007354      0.009009      0.008837
O	      8.21046      4.17565     10.37040         0.020604     -0.000703     -0.018171
O	     10.27689      4.17023     12.42420        -0.011464      0.030538      0.010888
O	     12.22208      4.17194     14.59691        -0.050466      0.022071      0.081549
O	     14.35515      4.20444     16.55619        -0.025090     -0.016933      0.017140
O	     16.41863      4.18803     18.64103         0.003884     -0.010307      0.007226
