# total energy = -250.91353886 eV
 
CRYSTAL
PRIMVEC
-0.002051 8.360175 8.360896 
8.359225 -0.001457 8.360301 
4.179960 4.180436 4.179072 
PRIMCOORD
32 1
Li	      4.18140      6.26606      6.54081        -0.006422      0.006805     -0.063819
Li	      6.00313      6.26951      8.36283         0.043884      0.001591     -0.007674
Li	      4.18110      8.08974      8.35768        -0.002747      0.054851      0.010061
Li	      4.18127      4.44865      8.36386        -0.008808     -0.063237     -0.005601
Li	      2.35861      6.27107      8.36082        -0.055513     -0.008229     -0.002197
Li	      4.17652      6.26920     10.18004         0.004885     -0.003466      0.063040
Ti	      4.18024      4.18120      4.18024         0.004208     -0.013063     -0.000540
Ti	      6.26947      4.17776      6.27038         0.002747     -0.003291     -0.004260
Ti	      8.35940      4.17820      8.36090         0.016464      0.006289      0.003068
Ti	     10.44866      4.17842     10.44987        -0.000877      0.003165     -0.003001
Ti	      8.36053      6.26825     10.45245         0.005019     -0.007208     -0.002946
Ti	     10.44867      6.26811     12.54032        -0.002348     -0.004659      0.004749
Ti	      6.26736      8.35741     10.45374         0.007336      0.013019     -0.001125
Ti	      6.27055      4.17909     10.45145        -0.002890     -0.010899      0.005546
Ti	      4.17773     10.44815     10.45090         0.015854      0.003495      0.010119
Ti	     10.44682     10.44630     16.72039         0.005111      0.016397      0.004888
O	      2.07160      2.08782      2.10784        -0.017937      0.007504      0.026329
O	      4.17958      2.08913      4.18190        -0.003107     -0.000266     -0.005848
O	      6.28936     10.44804     14.61272        -0.002599      0.000689     -0.016302
O	      8.35888      2.08831      8.36110         0.002648     -0.000131      0.000646
O	      2.07082      4.16056      4.18289        -0.005506     -0.016227     -0.008479
O	      4.17792      4.19679      6.29043         0.007235      0.011513      0.003792
O	      6.25007      4.19717      8.36010        -0.009897      0.014538      0.011883
O	      8.35893      4.15810     10.47148         0.005638     -0.007450      0.002681
O	      2.10729      6.26880      6.29002         0.007961      0.000121      0.007464
O	      4.18006      6.26862      8.35996         0.009815      0.003777      0.012439
O	      6.25033      6.26840     10.43381        -0.018077      0.000008     -0.033186
O	      8.35770      6.26709     12.54267         0.004654      0.000699     -0.006234
O	      2.10825      8.33904      8.36074         0.006124     -0.010379      0.005283
O	      4.17834      8.33979     10.43299        -0.005615     -0.020002     -0.013962
O	      6.28843      8.37707     12.54133        -0.002564      0.008255      0.010982
O	      8.35896      8.37557     14.61288        -0.004674      0.015790     -0.007796
