# total energy = -245.49438262 eV
 
CRYSTAL
PRIMVEC
0.007643 8.377900 8.401146 
8.405147 -0.000723 8.409485 
4.193688 4.180066 4.213302 
PRIMCOORD
32 1
Li	     10.51675      4.18430     10.54702         0.002707     -0.013129     -0.006867
Li	      4.27498      6.30368      6.59823        -0.005064      0.014982     -0.035643
Li	      6.03281      6.35769      8.38748         0.068953     -0.004462     -0.017884
Li	      4.21861      8.13086      8.32784         0.016013      0.023612     -0.002817
Li	      4.11956      4.42806      8.43081         0.005313     -0.024806      0.013692
Li	      2.39103      6.24679      8.48552        -0.057856     -0.012294     -0.004078
Li	      4.18498      6.19501     10.24930        -0.021682     -0.003407      0.051542
Ti	      4.20145      4.16465      4.22531        -0.045858     -0.012420     -0.041658
Ti	      6.37798      4.17487      6.40264         0.088650     -0.004354      0.100798
Ti	      8.39916      4.16475      8.42349        -0.023031      0.026914     -0.024880
Ti	      4.22131      2.08142      6.22053         0.056930     -0.056619      0.000940
Ti	     10.49394      6.30187     12.66707        -0.037856     -0.042820      0.016063
Ti	      2.01240      4.29695      6.29189        -0.069108      0.107248     -0.009773
Ti	     10.48851      8.24929     14.62483         0.003933     -0.076668     -0.069953
Ti	      0.05167      6.25735      6.28862        -0.002808      0.022252     -0.000546
Ti	     10.42611     10.47796     16.84575         0.009078      0.026766      0.042730
O	     10.53396     10.42991     18.84285        -0.005234     -0.054044     -0.069102
O	      4.20023     10.45063     12.57584         0.008041      0.012769      0.034579
O	      6.22253      2.11921      6.33900        -0.078289      0.063331     -0.002384
O	      8.37211      2.08265      8.40561         0.024824      0.016826      0.021460
O	      2.15343      4.19658      4.25005         0.047949      0.020710      0.033541
O	      4.20375      4.16981      6.29768         0.006259     -0.026744     -0.021195
O	      6.26733      4.24894      8.40582        -0.012008     -0.027459      0.018810
O	      8.36058      4.21353     10.49242        -0.004861      0.082863     -0.012032
O	      2.17486      6.27388      6.38402        -0.002789     -0.013908     -0.025503
O	      4.21324      6.28002      8.42600         0.005726     -0.012835     -0.009851
O	      6.35945      6.27519     10.57023         0.012078      0.003619      0.014442
O	      8.38939      6.27226     12.59981        -0.001015      0.008449     -0.020594
O	     10.48817      8.38494     16.82161        -0.010373      0.020726     -0.001700
O	      4.19646      8.30894     10.48053         0.031680      0.015220     -0.014596
O	      6.28978      8.33319     12.57177        -0.030743     -0.060375     -0.015116
O	      8.44883      8.35337     14.76663         0.020442     -0.019942      0.057574
