# total energy = -229.19374826 eV
 
CRYSTAL
PRIMVEC
-0.000111 2.080579 2.079296 
32.558634 -0.392274 33.658917 
4.069345 2.080006 2.079660 
PRIMCOORD
32 1
Li	     32.55375     -0.35226     33.61819        -0.000686      0.014712     -0.015295
Li	      4.06222     -0.03262      4.19126        -0.000449     -0.013739      0.013136
Li	      6.11385      2.16727      8.23559         0.003755      0.006299     -0.000429
Li	     16.27273      3.84952     16.93863         0.000705     -0.004298      0.001873
Li	     18.32461      3.96187     18.90685         0.005320      0.020906     -0.019600
Li	     22.40178      3.90085     23.12760         0.001992     -0.023699      0.024570
Li	     24.40382      1.83846     23.11169         0.002086     -0.000354      0.000693
Li	     28.48350      1.76161     27.34835        -0.000220     -0.005826      0.008119
Li	     26.45096     -0.28986     27.32061        -0.005714      0.007254     -0.006583
Li	     34.58667      1.70945     33.63990         0.000729      0.000611      0.001118
Ti	      6.00377      2.08549      4.15267        -0.145720      0.029389     -0.028893
Ti	      8.14375     -0.06672      8.39768        -0.006314      0.050046     -0.051011
Ti	     14.24311      4.00560     14.69663         0.008778     -0.054530      0.062011
Ti	     16.38150      1.84795     18.94057         0.149907     -0.021987      0.021838
Ti	     26.34107      1.80611     25.22475        -0.199745      0.002136     -0.001796
Ti	     32.44449      1.74479     31.52675        -0.161799     -0.006109      0.004176
O	      2.05311      1.98006      2.17809        -0.021524     -0.089794      0.097396
O	      4.11934      2.07624      4.16257         0.183959     -0.004766      0.002624
O	      6.12083      2.15982      6.16021        -0.025275      0.069713     -0.076023
O	      8.14538      1.91455      8.48454        -0.001849     -0.048371      0.040627
O	     10.17796      1.96991     10.49671        -0.000633     -0.048744      0.057432
O	     12.20909      1.96881     12.59888         0.000422      0.054145     -0.070111
O	     14.24187      2.02649     14.60750         0.001957      0.030238     -0.023516
O	     16.26787      1.77494     16.93462         0.034950     -0.061849      0.063436
O	     18.27278      1.85865     18.93059        -0.175466      0.006983     -0.005951
O	     20.33959      1.95464     20.91477         0.032460      0.092191     -0.089963
O	     22.40101      1.71475     23.23690        -0.005635     -0.122727      0.117773
O	     24.47555      1.80679     25.22487         0.182185     -0.002824     -0.000624
O	     26.47491      1.90086     27.21069        -0.004596      0.098961     -0.096963
O	     28.51384      1.64833     29.54218        -0.035101     -0.081467      0.075742
O	     30.58187      1.74259     31.52766         0.211830      0.007351     -0.006071
O	     32.58200      1.83633     33.51376        -0.030307      0.100149     -0.099736
