# total energy = -77.60154790 eV
 
CRYSTAL
PRIMVEC
-0.000957 2.112063 2.111650 
10.394368 -0.051642 10.605141 
4.158394 2.111749 2.110026 
PRIMCOORD
10 1
Li	      8.31405      4.07905      8.58248        -0.001064     -0.022113      0.021533
Li	      6.23580      2.19173      8.35723        -0.002357      0.016391     -0.015048
Ti	      4.16408      4.21468      4.22106         0.010178      0.009851     -0.016404
Ti	      6.23345      2.10085      4.22815        -0.003911     -0.014098      0.011266
Ti	     12.47118      4.17078     12.71204        -0.010340      0.024099     -0.017283
O	      2.08532      2.10603      2.11265         0.006136      0.007100     -0.000561
O	      4.15512      2.09053      4.23446         0.004646     -0.017003      0.019609
O	      6.23544      2.19705      6.24128        -0.005699      0.015907     -0.018537
O	      8.31457      1.96126      8.58660         0.000077     -0.029593      0.028115
O	     10.39357      2.06560     10.59129         0.002336      0.009459     -0.012687
