# total energy = -95.63507014 eV
 
CRYSTAL
PRIMVEC
-0.023008 4.322634 4.212912 
6.207236 0.057330 6.226599 
4.131182 4.315814 4.196875 
PRIMCOORD
12 1
Li	      8.24849      8.54564     12.47217         0.003055     -0.018429     -0.008701
Li	      6.18684      2.35322      8.41592        -0.001809      0.022149      0.007960
Ti	      6.21597      4.51578     10.40225         0.051251     -0.068727      0.043624
Ti	      2.03641      4.38727      6.20940        -0.020357     -0.125004      0.011232
Ti	      6.19188      6.45296      8.44895         0.022350      0.118906      0.019131
Ti	      8.22031      6.37957     10.49041        -0.054936      0.054461     -0.071408
O	      2.05807      2.08588      2.12749        -0.003096     -0.008672      0.007747
O	      4.11596      6.59333      8.39094         0.011944      0.005985     -0.056894
O	      6.17093      2.27999      6.38375        -0.026427     -0.008699      0.034182
O	      8.28814      4.29402     10.29065         0.027770      0.012004     -0.043511
O	      4.11295      4.24454      6.27149        -0.017088     -0.001790      0.061971
O	      6.19302      4.43136      8.32239         0.007342      0.017815     -0.005333
