# total energy = -95.50096879 eV
 
CRYSTAL
PRIMVEC
0.000632 2.100702 2.100762 
6.221040 0.004212 6.299832 
6.273397 4.253193 2.050840 
PRIMCOORD
12 1
Li	      6.09698      0.09850      6.20610        -0.000569     -0.013961      0.013562
Li	      4.26085      2.05121      6.35416        -0.007910     -0.002597      0.003378
Ti	      8.24849      2.18794      6.21829         0.008755      0.012743     -0.007651
Ti	      8.24502      4.18480      4.22192        -0.045192     -0.004477     -0.000354
Ti	      4.27119      4.18579      4.21939         0.135651      0.058306     -0.065730
Ti	      6.30914      4.26085      6.24660        -0.046416     -0.013416      0.005433
O	      2.09582      2.10887      2.09409        -0.026656     -0.011085      0.009348
O	     10.33515      4.15432      8.45424        -0.036688     -0.025459      0.030193
O	      4.12780      2.10566      4.19818         0.027258      0.030410     -0.025043
O	      6.23877      4.31055      4.09464        -0.068603     -0.007986      0.021855
O	      6.21909      2.14530      6.26061         0.060285     -0.013548      0.014971
O	      8.50089      4.22857      6.27908         0.000085     -0.008931      0.000039
