# total energy = -107.95406981 eV
 
CRYSTAL
PRIMVEC
-0.000842 2.067740 2.067297 
14.751502 -0.268826 14.734586 
6.297381 2.004281 4.195733 
PRIMCOORD
14 1
Li	     10.40032      1.80721      8.52743        -0.009214      0.000434     -0.002958
Li	      8.54469      1.92856     10.47202         0.039693     -0.004158      0.007044
Li	     10.41053     -0.08480     10.41854         0.005589     -0.001125      0.001845
Ti	     14.72983     -0.25161     14.71928        -0.039704     -0.006383      0.008188
Ti	      2.25572      2.07891      4.12333         0.043528     -0.015145      0.023199
Ti	     12.53997      1.84809     10.55453        -0.256181      0.005833     -0.009269
Ti	     18.85723      1.73979     16.86183        -0.001177      0.015197     -0.021137
O	     16.75100      1.84421     16.75673        -0.027920     -0.035088      0.037195
O	      4.28915      1.95093      4.25165         0.034863      0.017279     -0.020184
O	      6.38565      1.95872      6.31061         0.010476     -0.003618     -0.002178
O	      8.34939      2.00311      8.33217        -0.040822      0.038099     -0.038691
O	     10.67726      1.90458     10.49698         0.266923     -0.016964      0.018498
O	     12.66094      1.85676     12.61131        -0.008445      0.040800     -0.039856
O	     14.68003      1.81120     14.72366        -0.017609     -0.035160      0.038304
