# total energy = -108.09623221 eV
 
CRYSTAL
PRIMVEC
0.001286 2.073110 2.072589 
14.372339 -0.121316 14.638175 
8.226672 2.053335 6.242555 
PRIMCOORD
14 1
Li	     14.37661      1.95196     16.71079        -0.002186      0.002430     -0.004658
Li	     12.25142      1.97860     10.46219        -0.007062     -0.017984      0.020381
Li	     10.35188      2.02595     12.49094         0.013156      0.017684     -0.019980
Ti	      2.13926      2.09582      4.11956        -0.020950     -0.004559      0.003443
Ti	     14.45239      4.02400     14.62750        -0.039144      0.001780     -0.002772
Ti	      8.15211     -0.01794      8.32427         0.037903     -0.013980      0.006583
Ti	     20.46387      1.90895     18.83345         0.033852      0.011761     -0.016756
O	     16.47999      1.99686     16.66952        -0.008669      0.002324     -0.007453
O	     18.48865      1.94185     18.79528         0.001353     -0.000212      0.000302
O	      6.12481      2.00826      6.28234         0.005126      0.005875      0.008753
O	      8.31516      2.10018      8.27688         0.073268      0.008276      0.001545
O	     10.26217      2.08883     10.35552        -0.020716      0.001804     -0.004890
O	     12.34269      1.91676     12.59642         0.017487     -0.012799      0.016807
O	     14.28947      1.90521     14.67484        -0.083418     -0.002401     -0.001305
