# total energy = -125.90059896 eV
 
CRYSTAL
PRIMVEC
-0.009211 8.335395 8.350242 
4.193729 6.243451 10.441412 
4.192118 4.159247 4.178939 
PRIMCOORD
16 1
Li	      4.21417     14.57553     18.77309        -0.020171      0.014639     -0.005677
Li	      0.02594      2.08470      2.11189        -0.015171     -0.000883     -0.011874
Li	      2.10579     10.40864     12.52942         0.010932      0.001705     -0.008021
Ti	      6.19930     12.40094     14.70566         0.021472      0.019564      0.027268
Ti	      4.25085     10.39833     14.57849        -0.013767     -0.041958     -0.008929
Ti	      2.01036      4.24371      6.15857         0.011632     -0.013125     -0.051064
Ti	      0.03725      6.27333      6.29962         0.001646      0.015763      0.025549
Ti	      6.27964     10.41995     12.54965        -0.011297      0.003880      0.025112
O	      6.28305      8.32106     12.47394         0.012295      0.012441     -0.002673
O	      4.19821     10.41074     12.52557         0.019725      0.001420      0.007209
O	      2.17387      4.06573      4.13805        -0.040929      0.032861      0.000583
O	      4.11452     12.50676     14.62696         0.026296     -0.008592     -0.008343
O	      6.34222     12.57097     16.75420        -0.015534     -0.028652      0.004963
O	      4.20680      6.24178      8.35429        -0.009944      0.003575     -0.004496
O	      2.08039      8.34782      8.39783         0.003039     -0.007748      0.002469
O	      4.12252      8.32401     10.43270         0.019777     -0.004890      0.007923
