# total energy = -126.07142697 eV
 
CRYSTAL
PRIMVEC
-0.061933 4.193945 4.193698 
8.298371 2.012295 10.444827 
4.144379 2.045739 2.085753 
PRIMCOORD
16 1
Li	      4.12237      6.12802      6.40127        -0.013402     -0.002993      0.028666
Li	      6.17375      6.19071      8.37162         0.008967     -0.000667     -0.013788
Li	      4.05911      4.26049      8.26174         0.004580      0.010764     -0.016571
Ti	     10.30492      6.09515     12.49104         0.047309      0.045295     -0.038779
Ti	      8.35257      4.16626     12.51051        -0.006420      0.001762      0.005153
Ti	      2.03233      2.10806      4.12145         0.015674      0.024731     -0.021494
Ti	      8.25770      4.05520      8.39210        -0.050123     -0.037454      0.007398
Ti	     10.33720      4.13903     10.54459        -0.005114     -0.030470      0.058734
O	      2.17144      1.96447      2.12112        -0.010201     -0.005643     -0.013127
O	      4.11472      2.11200      4.24603         0.006379     -0.020721     -0.038052
O	      6.22527      2.04368      6.30834        -0.002251      0.019713     -0.011852
O	      8.22950      6.20854     12.54565        -0.000380      0.003976     -0.003444
O	     10.31771      6.19554     14.61208        -0.008580     -0.013272      0.034223
O	      4.12122      4.08989      6.23163         0.019429      0.014359      0.033830
O	      6.12448      4.18299      8.30456        -0.014715     -0.005188     -0.008106
O	      8.25830      4.10845     10.44724         0.008849     -0.004193     -0.002790
