# total energy = -125.68012593 eV
 
CRYSTAL
PRIMVEC
0.000024 4.233162 4.133925 
8.347291 2.124539 10.327163 
4.173524 4.233042 4.134065 
PRIMCOORD
16 1
Li	      4.17405      4.23085      4.13665        -0.000141     -0.001025     -0.000115
Li	     10.43436      8.42569     14.42339        -0.000040      0.028768     -0.004792
Li	      6.26077      6.38790      8.30430         0.000680     -0.032311      0.002793
Ti	      2.08730      4.21756      6.14802         0.000479      0.097829     -0.070751
Ti	      4.17426      4.17669      8.20430        -0.001567     -0.037437      0.015580
Ti	      8.34770      4.24863     12.38910        -0.000269      0.033659     -0.007518
Ti	      8.34751      6.40561     10.39230         0.001725      0.026355     -0.006834
Ti	     10.43406      6.35870     12.44733         0.000456     -0.110136      0.072571
O	      2.08715      6.34329      6.20027         0.001043     -0.000954     -0.002412
O	      4.17396      6.25507      8.24627        -0.003882     -0.013224     -0.028476
O	      6.26078      6.34078     10.31894        -0.001288      0.032585      0.036662
O	      8.34736      6.30991     12.53481        -0.007639     -0.030638      0.059861
O	      2.08730      4.22784      4.13472        -0.002189     -0.003522     -0.004010
O	      4.17401      4.28272      6.06503         0.008423      0.037213     -0.053847
O	      6.26096      4.23893      8.27546         0.000412     -0.034726     -0.036616
O	      8.34757      4.32502     10.34370         0.003797      0.007563      0.027904
