# total energy = -125.42624054 eV
 
CRYSTAL
PRIMVEC
-0.000736 2.096709 2.095943 
16.655123 -0.105605 16.867132 
12.491070 2.042770 10.529125 
PRIMCOORD
16 1
Li	     16.76470      2.12607     18.82604         0.018996      0.013520     -0.015008
Li	     16.76420      3.97416     16.97763         0.019960     -0.014534      0.013080
Li	     18.53488      2.00221     16.85460        -0.018139      0.000059     -0.001447
Ti	     14.51199      1.97993     12.68383        -0.025660     -0.013023      0.011888
Ti	      8.35160      2.06034     10.51207         0.012282      0.031912     -0.035095
Ti	     10.34764     -0.02025     10.49352        -0.013453      0.016252     -0.019542
Ti	     25.00642      4.04077     25.29118         0.004875     -0.025677      0.028438
Ti	     14.65585      2.00203     16.85353         0.169893     -0.002746      0.001118
O	     18.76347      1.91030     19.03981         0.028372     -0.038313      0.036091
O	     20.76982      1.99366     21.05449        -0.014657      0.010952     -0.009738
O	     22.92639      2.04193     23.10087         0.031452      0.031838     -0.041209
O	      8.18894      2.05487      8.42006        -0.051437     -0.000189     -0.002019
O	     10.52712      2.05816     10.51094         0.003747     -0.006368      0.013186
O	     12.44212      2.01121     12.65184        -0.017077     -0.016040      0.024458
O	     14.69074      1.99754     14.76219         0.008188      0.010493     -0.006731
O	     16.57278      2.00206     16.85354        -0.157341      0.001865      0.002530
