# total energy = -92.68247993 eV
 
CRYSTAL
PRIMVEC
-0.000073 2.072151 2.071689 
4.102436 -2.112724 2.112157 
4.044323 6.279213 -6.278069 
PRIMCOORD
16 1
Li	      2.17625      2.07209     -0.00272         0.010323      0.008482     -0.005352
Li	      4.06424      4.11028      0.03354        -0.006944      0.000071      0.000940
Li	      5.97143      4.14168     -2.06536        -0.022498     -0.026578      0.022647
Li	      4.10618      0.12396     -0.12395         0.007705      0.016611     -0.015271
Mn	      8.14282      4.16544     -4.16414         0.022172      0.021018     -0.020719
Mn	      6.07383      2.04768      0.02503        -0.038487     -0.022035      0.021791
Ni	      2.07821     -0.00003      2.07242         0.057202      0.022282     -0.021596
Ni	      4.07395      4.12782     -4.12566         0.018876      0.075460     -0.077658
O	      6.17262      4.19841     -4.19658         0.113874     -0.100488      0.099934
O	      6.14490      1.96068     -1.95987        -0.128077      0.004790     -0.005328
O	      4.02335      6.34201     -4.26792        -0.080274      0.063426     -0.063812
O	      2.02887      2.21981     -2.21827        -0.002331      0.013156     -0.012301
O	      3.97257      4.22891     -2.15479        -0.028817     -0.127917      0.128415
O	      1.90820     -0.03012      0.03042        -0.040794      0.092076     -0.092633
O	      4.21455      2.06025      0.01190         0.015923      0.000238      0.000320
O	      4.11057     -0.17920      2.25108         0.102147     -0.040592      0.040623
