# total energy = -125.72082761 eV
 
CRYSTAL
PRIMVEC
0.000510 2.108104 2.108358 
4.146054 -0.008881 4.226618 
10.342201 8.424961 2.118293 
PRIMCOORD
16 1
Li	      8.28341      6.26009      6.39315        -0.006165      0.015048     -0.017121
Li	      2.21742      2.18949      4.13903         0.000731     -0.008463      0.008416
Li	      4.04091      2.08238      2.13676        -0.011355      0.002892     -0.004337
Ti	     10.28907      8.36825      2.17932        -0.012021     -0.056678      0.057311
Ti	      6.26708      4.24723      6.29624         0.053413      0.037656     -0.043375
Ti	     10.26017      6.38670      4.15965        -0.007122      0.050597     -0.053222
Ti	      6.11326      4.17836      2.14952        -0.028805     -0.043865      0.045555
Ti	      8.41612      8.40556      4.24656         0.016785      0.000285     -0.004536
O	      2.04354      2.18691      2.02992        -0.005162      0.014646     -0.005747
O	      4.11657      4.21724      2.11023        -0.011894      0.009865     -0.009324
O	     10.33448      6.31868      6.33543        -0.015129     -0.015947      0.012618
O	     12.37776      8.38999      6.37182         0.012901     -0.022667      0.028621
O	      4.18509      2.03492      4.29608         0.035397      0.004349     -0.002695
O	      6.16992      4.21509      4.22081        -0.009560     -0.014286      0.014244
O	      8.18395      6.29352      4.25060        -0.010248      0.011183     -0.013306
O	     10.57128      8.43527      4.21969        -0.001765      0.015386     -0.013102
