# total energy = -125.74504207 eV
 
CRYSTAL
PRIMVEC
-0.020905 16.615258 16.800615 
2.092537 4.153701 6.297725 
2.092426 8.307638 6.297619 
PRIMCOORD
16 1
Li	      2.08808     12.45924     10.63400        -0.006176      0.000659      0.012814
Li	      1.96266     10.38258     12.47309         0.005143     -0.001118      0.004481
Li	      0.12350     12.45946     12.60051         0.014598     -0.001270     -0.010641
Ti	      2.08719     20.76670     23.07702        -0.049609     -0.004028      0.067794
Ti	      0.01926      2.07483      2.11477        -0.091296     -0.000652     -0.080601
Ti	      4.15389     20.76682     21.00904         0.070108      0.001486     -0.049487
Ti	      4.11304     22.84349     23.03680        -0.036902      0.002291     -0.033250
Ti	      0.05109     14.53603     14.76736         0.015908     -0.001984      0.025648
O	      2.00924     18.68991     18.91126         0.020004      0.000196      0.032656
O	      2.03623     20.76645     20.95887         0.064885     -0.003993      0.060534
O	      1.98522      6.22837      6.33607        -0.029851     -0.000805      0.052310
O	      2.07954      8.30542      8.38549        -0.039036     -0.000981     -0.036428
O	      2.10170     10.38128     10.42452         0.032665      0.004948      0.024365
O	      2.18069     12.45908     12.69304         0.042367     -0.000726      0.039843
O	      2.12456     14.53592     14.59266         0.060984      0.003196     -0.037765
O	      2.12911     16.61301     16.84541        -0.073790      0.002779     -0.072271
