# total energy = -160.80975608 eV
 
CRYSTAL
PRIMVEC
0.031811 10.538965 10.537178 
4.170044 6.322040 10.551010 
4.170930 8.438303 8.435121 
PRIMCOORD
20 1
Li	      4.18217     12.64881     12.64512        -0.002309      0.004312      0.005327
Li	      2.15256      6.38377      8.49812        -0.035872     -0.031453     -0.032019
Li	      6.21117     16.80390     18.91650         0.030997      0.027472      0.027344
Ti	      4.12552      8.45006      8.44925        -0.042554      0.038868      0.040212
Ti	      6.17118     19.01367     21.12361         0.015598      0.045360      0.050283
Ti	      0.07301      2.04378      2.04682        -0.019205     -0.060930     -0.067949
Ti	      2.11765     12.64835     14.76229         0.005439      0.003566      0.003217
Ti	      2.19300      4.17393      6.29044        -0.011463     -0.042646     -0.047093
Ti	      8.29192     21.14196     25.36551         0.018607      0.066954      0.074972
Ti	      4.24062     14.73980     18.96730         0.040468     -0.052767     -0.051903
O	      6.42234     18.99923     23.22511         0.007182     -0.000757      0.003460
O	      4.20744     12.69733     14.80893        -0.007367     -0.021369     -0.020571
O	      1.94086      4.19153      4.19205         0.008264     -0.001234     -0.004749
O	      4.36014     14.78527     16.89596        -0.007743      0.000450      0.004792
O	      2.11526      6.29700      6.29665         0.031872      0.017734      0.014890
O	      4.19764     16.86291     18.97550        -0.000969     -0.003056     -0.004112
O	      2.09643      8.43289      8.43193        -0.008863     -0.002193     -0.002869
O	      4.00290      8.40187     10.51791         0.008855      0.001072     -0.004171
O	      2.08167     10.56871     10.56668        -0.036434     -0.018783     -0.016398
O	      4.16120     10.48964     12.60463         0.005497      0.029399      0.027336
