# total energy = -161.19730998 eV
 
CRYSTAL
PRIMVEC
0.036251 4.213205 4.205165 
10.485995 2.213844 12.597360 
4.212472 2.149479 2.094932 
PRIMCOORD
20 1
Li	     10.48697      6.38894     12.58549         0.013280      0.004106     -0.005599
Li	      4.18888      4.23506      4.22678         0.010242     -0.019161     -0.017089
Li	      8.40543      4.30303      8.41883        -0.000140     -0.009804      0.002469
Ti	     10.35993      2.27705     12.53343        -0.036048     -0.004473     -0.014888
Ti	      6.41869      6.41589      8.51384        -0.025542      0.070403      0.055088
Ti	      8.31670      6.43635     10.53354         0.013225     -0.024714      0.034627
Ti	      8.48412      4.20634     12.56295        -0.020627     -0.078376     -0.028787
Ti	      6.41194      4.15935      6.29208         0.006000     -0.001648     -0.017381
Ti	      6.37100      2.23934      8.27648        -0.023937     -0.006036     -0.073532
Ti	      8.48967      2.27039     10.59778         0.021916      0.046085      0.056586
O	      1.94278      2.09219      2.14125         0.013043      0.036973      0.010340
O	      4.26600      2.16263      4.17017         0.000533     -0.004184     -0.006329
O	      6.16159      2.05767      6.28722         0.011601      0.011095     -0.022116
O	      8.45974      6.37107     12.64382        -0.003805     -0.002137     -0.000214
O	     10.58962      6.45275     14.66325        -0.006191     -0.017895      0.013317
O	     12.62630      6.46810     16.80542         0.009687     -0.001545     -0.002328
O	      4.27878      4.29924      6.32167         0.016084     -0.014050      0.005860
O	      6.34702      4.31827      8.37912         0.000481      0.021578     -0.011198
O	      8.43070      4.33275     10.48449         0.010904     -0.000007      0.023570
O	     10.56080      4.34755     12.55924        -0.010706     -0.006209     -0.002394
