# total energy = -160.65455223 eV
 
CRYSTAL
PRIMVEC
0.054935 10.396199 10.503245 
4.328231 4.153821 8.429821 
4.325259 8.314213 8.427784 
PRIMCOORD
20 1
Li	      2.20686     10.39161     12.59273         0.025647      0.005840      0.026862
Li	      0.29953      2.07554      2.18280         0.029472      0.002982      0.005529
Li	      2.15233     12.47368     14.52734        -0.033579      0.001740     -0.009364
Ti	      4.18062      8.30564      8.53459         0.102901      0.025820     -0.022581
Ti	      4.34523     12.47051     12.63513        -0.101201      0.004928      0.012773
Ti	      2.21107      4.16221      6.28985        -0.038177      0.003008      0.043679
Ti	      8.59786     18.70891     23.09736         0.060023      0.001867     -0.096035
Ti	      2.32202      6.25146      8.38059        -0.176684     -0.025731      0.009156
Ti	      4.12906     16.63111     16.97148         0.098931     -0.005612     -0.090791
Ti	      2.35165      8.31530     10.49511        -0.050131     -0.006865      0.085508
O	      6.70429     16.62541     20.97794         0.061509      0.011519     -0.021483
O	      4.33507     12.47525     14.79538        -0.014865      0.000073     -0.029600
O	      2.15541      4.15842      4.21858         0.015324      0.001216      0.063456
O	      4.45344     14.55212     16.86038        -0.117487     -0.000357     -0.100257
O	      6.35003     10.39613     14.63340         0.099366      0.001629      0.003954
O	      4.51364     16.62393     19.06368        -0.117806     -0.006160      0.089668
O	      6.26718     12.48356     16.82922         0.157735     -0.003889      0.035301
O	      4.38147      8.31047     10.56392        -0.044399     -0.006297     -0.038599
O	      6.44375     14.54932     18.92096         0.059983     -0.012030      0.040980
O	      4.38513     10.39119     12.59786        -0.016561      0.006320     -0.008155
