# total energy = -161.14524815 eV
 
CRYSTAL
PRIMVEC
-0.050448 4.184754 4.182018 
10.544997 -0.161499 10.491989 
6.309161 2.017241 4.182069 
PRIMCOORD
20 1
Li	     10.56440      1.94143     12.53036         0.013578     -0.009555      0.026253
Li	     12.56380      4.00015     12.61586        -0.012913      0.008930     -0.028273
Li	     14.71817      3.97973     14.66423         0.001699     -0.001364     -0.001453
Ti	      6.19568      1.98558      4.14392        -0.002890      0.031488      0.014648
Ti	      8.26904      6.00232     10.43962        -0.059390      0.002280     -0.016004
Ti	      4.31316      0.10032      4.21300         0.061499      0.011081      0.028715
Ti	      6.38734      4.11746     10.50981        -0.007436     -0.028916     -0.016257
Ti	      8.38425      4.05461     12.57323        -0.004127     -0.000888      0.002466
Ti	      8.30714      4.14173      8.46226        -0.003294      0.022276      0.046170
Ti	      4.27519      1.96225      6.19216        -0.000717     -0.030524     -0.053937
O	     12.64211      1.87751     12.59785         0.007883     -0.009904     -0.003390
O	      4.08783      2.22723      4.14073         0.004184     -0.005149     -0.003453
O	      6.30312      2.04173      6.29378        -0.000382     -0.016718      0.000537
O	      8.47037      1.98059      8.35458        -0.011355     -0.006836     -0.034999
O	     10.56895      1.91154     10.48780         0.028493      0.009658      0.019196
O	     12.55819      4.03016     14.65691        -0.021722     -0.007358     -0.015523
O	      4.11288      4.12247      6.29990         0.006012      0.008360      0.023471
O	      6.27894      4.06116      8.35970         0.001327      0.018574     -0.000695
O	      8.49435      3.87622     10.51347         0.000824     -0.000754      0.005639
O	     10.48498      4.06465     12.54753        -0.001274      0.005319      0.006888
