# total energy = -160.92893101 eV
 
CRYSTAL
PRIMVEC
0.000499 2.073742 2.073794 
21.013157 -0.213184 20.957043 
4.201942 2.073577 2.075064 
PRIMCOORD
20 1
Li	      8.36220      2.03982      6.25830         0.010483     -0.008176      0.001239
Li	     14.71004      4.03594     14.62568        -0.007627      0.005700     -0.003830
Li	     20.97532      1.89066     18.84679         0.009508      0.005297     -0.001603
Ti	      0.24836      2.07075      2.07305        -0.064077     -0.005254     -0.007803
Ti	      6.23056      2.06682      4.15595         0.010187     -0.016897      0.006596
Ti	     10.46382      1.99158      8.37856         0.001109     -0.046184      0.050948
Ti	      8.40655      1.99792     10.44092         0.004774      0.023401     -0.019411
Ti	     16.81152      4.00289     16.73564         0.004737     -0.010775      0.001875
Ti	     18.87502      1.93669     16.72389        -0.000150      0.051536     -0.030893
Ti	     23.04410      1.86581     20.94937         0.005687      0.000211      0.003005
O	      2.35366      2.07310      2.07402         0.075543      0.006520      0.002956
O	      4.16929      2.04029      4.17909        -0.017062     -0.021149      0.023819
O	      6.27318      2.04353      6.25121         0.003528     -0.015420      0.014661
O	      8.36415      2.05029      8.31661        -0.008523     -0.012848      0.007526
O	     10.50794      1.94482     10.49841         0.004410     -0.001276     -0.003875
O	     12.60763      1.96384     12.55105        -0.011001      0.000397      0.002441
O	     14.71122      1.98352     14.60248        -0.004678      0.001994      0.008020
O	     16.77501      1.87767     16.78621        -0.002956      0.005865     -0.012563
O	     18.88582      1.88591     18.85206         0.000530      0.014397     -0.016137
O	     20.98301      1.88897     20.92530        -0.014421      0.022661     -0.026971
