# total energy = -91.07690355 eV
 
CRYSTAL
PRIMVEC
-0.001959 2.105119 2.102398 
4.075836 -2.138422 2.130998 
4.078472 6.410102 -6.404448 
PRIMCOORD
16 1
Li	      4.17610      2.29852     -2.29882         0.006103      0.023194     -0.017260
Li	      6.05819      4.24982     -2.16986        -0.013976      0.010073     -0.005012
Li	      6.02155      6.23488     -4.14277        -0.019402     -0.001370      0.011469
Li	      4.04657      4.12927     -4.11499         0.017644      0.012493     -0.008692
Mn	      8.07858      4.27251     -4.23028        -0.065434     -0.032181      0.026437
Mn	      2.12213      2.12751     -0.07981         0.038942      0.004901     -0.007637
Ni	      4.04678      2.09025      2.08450        -0.019091     -0.066217      0.073052
Ni	      6.15246      2.24197     -0.08431        -0.072253     -0.060135      0.056821
O	      6.27131      4.29851     -4.29244         0.095708      0.009540     -0.002840
O	      6.10880      2.11179     -2.00502        -0.007033      0.116862     -0.127006
O	      4.10150      6.61112     -4.45552        -0.004240      0.057448     -0.038961
O	      2.01467      4.06620     -0.10784         0.104569     -0.054589      0.038469
O	      3.98400      4.27486     -2.16977         0.132468     -0.022210      0.014443
O	      1.99209      0.18560     -0.03644        -0.128582      0.011665      0.011714
O	      4.08028      1.99181      0.07725        -0.046290      0.084428     -0.108859
O	      4.12618     -0.07752      2.18533        -0.019131     -0.093902      0.083863
