# total energy = -84.49153321 eV
 
CRYSTAL
PRIMVEC
0.000311 3.883367 3.994799 
7.405099 0.000095 5.991891 
7.405305 3.883456 5.991900 
PRIMCOORD
12 1
Li	      7.62201      3.88339      9.98709         0.003720      0.000055     -0.002657
Li	     11.97411      3.88365      9.98504        -0.005072     -0.000127      0.001558
Li	      7.19035      5.82469      7.98901        -0.002640      0.000761     -0.000080
Li	      2.83898      1.94148      3.99400         0.003661     -0.000263      0.001762
Ti	      9.71937      3.88272      7.98827        -0.549269      0.003387      0.000932
Ti	      5.09311      1.94196      5.98873         0.539896     -0.000433      0.005317
O	     10.14408      5.82502     11.98385        -0.000961     -0.002072     -0.001826
O	      4.91557      1.94189      3.99483        -0.039426     -0.001720     -0.001563
O	      6.88664      1.94187      5.99171        -0.530737     -0.000794     -0.001165
O	      9.89697      3.88326      9.98681         0.038935      0.000951     -0.002797
O	      4.66863      3.88357      5.99162         0.000291      0.000918      0.001984
O	      7.92528      3.88327      7.98942         0.541602     -0.000663     -0.001466
