# total energy = -84.49151066 eV
 
CRYSTAL
PRIMVEC
-0.000285 3.993196 3.885122 
7.442617 1.996510 7.769904 
7.442782 1.996494 3.884790 
PRIMCOORD
12 1
Li	      2.69579      3.99434      5.82723        -0.003053      0.002088     -0.003153
Li	      5.33656      3.99544      7.77008         0.007493      0.001823     -0.004906
Li	      7.05929      3.99566      5.82691        -0.006544     -0.003571     -0.004600
Li	      9.70020      3.99444      7.76959         0.005463     -0.001254     -0.002003
Ti	      7.59358      5.99354     11.65602         0.501685     -0.006070     -0.014430
Ti	     12.24600      3.99908      9.71431        -0.524839     -0.011802     -0.019678
O	     10.44990      3.99382      9.71079         0.563606      0.006536      0.006146
O	      5.23570      1.99704      3.88314        -0.043083      0.009819      0.009082
O	      7.16102      1.99704      5.82609         0.042294      0.009736     -0.000053
O	      9.38858      5.99017     11.65325        -0.545328      0.007968      0.009533
O	      4.98534      3.99406      5.82549         0.013038     -0.010027      0.009733
O	      7.41082      3.99417      7.76771        -0.010731     -0.005245      0.014328
