# total energy = -83.28980649 eV
 
CRYSTAL
PRIMVEC
-0.029925 4.429291 4.427656 
5.990854 2.373646 8.649526 
5.990812 4.466525 6.557249 
PRIMCOORD
12 1
Li	      1.99503      4.75780      6.84823         0.000059     -0.028844     -0.031934
Li	      9.80880      9.01518     15.29183         0.019241      0.004591      0.003320
Li	      6.12763      4.58113     10.85232        -0.019234     -0.011227     -0.008201
Li	      7.95033      6.46436     10.64674        -0.001597      0.027662      0.028167
Ti	      6.07274      6.84618     13.11747         0.206125      0.097448      0.096132
Ti	      9.86306      6.75056     13.02455        -0.213934     -0.071306     -0.069441
O	      7.98300      4.58316     10.85817         0.001985      0.004786      0.004736
O	      4.04379      6.87017      8.95915        -0.017152      0.125795      0.116315
O	      5.90682      6.90384     11.08542         0.005396      0.063397      0.058510
O	      7.96805      6.79891     13.07142         0.003037     -0.003017     -0.001936
O	      4.03830      4.31997      6.40892        -0.002191     -0.073278     -0.066504
O	      5.90179      4.35359      8.53554         0.018265     -0.136008     -0.129163
