# total energy = -102.66705956 eV
 
CRYSTAL
PRIMVEC
0.089513 14.468486 14.156482 
2.135532 2.067499 4.057399 
2.136877 6.201539 4.057223 
PRIMCOORD
14 1
Li	      0.14179     14.46803     14.12250         0.055475     -0.000105      0.018628
Li	      4.24743     12.40151     12.19631        -0.056072     -0.000563     -0.018276
Li	      2.17890     14.46911     12.21127        -0.008144     -0.001876      0.024501
Li	      2.20884     12.40159     14.10785         0.009154     -0.001260     -0.024513
Ti	      2.14968      8.26743      6.08117         0.001138      0.003099      0.002314
Ti	      2.16287      8.26630     10.07512        -0.081263     -0.002276     -0.035181
Ti	      2.22565     18.60411     16.24387         0.083518     -0.001423      0.033928
O	      2.17632     16.53607     16.22321        -0.006182      0.003402     -0.038509
O	      2.24866     18.60255     18.22517        -0.030795      0.001982      0.004306
O	      2.15032      6.20067      6.08221        -0.016619     -0.002064     -0.006572
O	      2.14040      8.26701      8.09390         0.022491      0.001604      0.007731
O	      2.21145     10.33367     10.09618         0.009473      0.000595      0.037891
O	      2.06607     12.40130     12.06043        -0.059502     -0.000977     -0.036842
O	      2.32085     14.46893     14.25900         0.077328     -0.000139      0.030595
