# total energy = -102.53009854 eV
 
CRYSTAL
PRIMVEC
0.000237 2.078786 2.078678 
14.350512 -0.138336 14.690741 
8.220680 2.060251 6.255511 
PRIMCOORD
14 1
Li	     12.32779      4.00477     12.62424        -0.019936     -0.005016      0.005018
Li	     14.33458      1.98108     12.57149         0.027625     -0.011607      0.010498
Li	      8.23584      2.01967     10.45281        -0.016953      0.014707     -0.015880
Li	     10.24553     -0.00437     10.39778         0.011521      0.008884     -0.008343
Ti	     14.35096      1.94091     16.76808         0.001964     -0.009345      0.007207
Ti	      2.17045      2.04153      4.19189         0.063442     -0.051646      0.045297
Ti	     20.40151      1.95944     18.82969        -0.070377      0.037103     -0.028250
O	     16.38481      1.90287     16.80301        -0.060272     -0.008920      0.007609
O	     18.46119      1.93116     18.85681        -0.001080      0.000737     -0.002414
O	      6.18767      2.09774      6.21892         0.055527      0.008910     -0.006121
O	      8.25884      2.09293      8.30097         0.037314      0.028028     -0.016735
O	     10.26666      2.10609     10.36519         0.034742      0.072591     -0.064232
O	     12.30495      1.89422     12.65713        -0.031672     -0.060298      0.054642
O	     14.31326      1.90819     14.72136        -0.031845     -0.024127      0.011704
