# total energy = -102.24901482 eV
 
CRYSTAL
PRIMVEC
0.000037 2.097502 2.097537 
14.007633 -0.063757 14.746958 
14.007661 2.052026 12.631142 
PRIMCOORD
14 1
Li	     14.02421      2.03576     16.84809        -0.016033      0.003727     -0.002777
Li	     17.99617      2.03395     16.84407         0.011962      0.006638      0.004657
Li	      8.14797      2.06592     10.52842         0.019491     -0.001858     -0.003180
Li	     23.87189      2.01117     23.16827        -0.014449     -0.000790     -0.002024
Ti	      2.00336     -0.00610      2.10878        -0.031589     -0.002347     -0.000106
Ti	      6.04476      2.07303      8.41958         0.540981      0.000420     -0.003047
Ti	     25.97517      2.00176     25.27389        -0.522045     -0.000731      0.000457
O	     16.00978      2.03644     16.84691         0.008540      0.002805     -0.003878
O	     17.96177      2.02772     18.95312        -0.167602     -0.000996      0.001023
O	     19.95850      2.01871     21.05948        -0.034713     -0.000001      0.003985
O	      7.86046      2.07360      8.41961        -0.515389     -0.000479      0.001109
O	     10.15227      2.06581     10.52669         0.512271     -0.001549      0.002142
O	     12.06180      2.05639     12.63350         0.025297     -0.001234      0.000318
O	     14.05771      2.04660     14.74015         0.183279     -0.003606      0.001322
