# total energy = -138.57022770 eV
 
CRYSTAL
PRIMVEC
0.090915 6.270543 6.330264 
6.316437 2.132880 8.488730 
4.174570 2.104392 2.156564 
PRIMCOORD
18 1
Li	      4.31857      8.30751      8.48962         0.015154      0.001769     -0.013210
Li	      4.23013      6.37119     10.57530        -0.009847     -0.004518      0.016166
Li	      2.25853      2.04053      4.28972        -0.006327     -0.011290      0.012656
Li	      6.19931      6.36584      8.44688         0.007125      0.016172     -0.015716
Ti	      2.18729      6.28717      8.45421        -0.007111      0.002429      0.000423
Ti	      6.36416      4.27515     10.58322        -0.071231      0.002002      0.027562
Ti	      8.30554      4.28096      8.59233        -0.006965      0.032332     -0.034344
Ti	      6.46836      6.25981     12.63434         0.021835     -0.039890      0.021085
Ti	      8.41090      6.26302     10.63922         0.058606      0.010851     -0.007196
O	      2.18712      2.04957      2.20675        -0.001452     -0.017395      0.021558
O	      4.23117      2.15018      4.32425         0.009271      0.013476      0.004765
O	      6.32271      8.33333     12.65514        -0.008945     -0.023940      0.014803
O	      8.44986      6.33285     12.72543        -0.034996      0.002342     -0.013816
O	      4.22875      4.20390      6.36769         0.002185      0.001977     -0.005565
O	      6.32484      4.20680      8.49926         0.021051     -0.004057     -0.003657
O	      8.54268      8.47738     14.89963         0.011505      0.017729     -0.014771
O	      4.22718      6.25712      8.41135        -0.013285     -0.017994     -0.003454
O	      6.27088      6.35729     10.52947         0.013427      0.018006     -0.007288
