# total energy = -138.70336034 eV
 
CRYSTAL
PRIMVEC
-0.067489 18.766441 18.775250 
2.081949 2.084392 4.165549 
2.048912 8.316125 6.275595 
PRIMCOORD
18 1
Li	      2.12769      6.31713      8.32129         0.025347      0.005500      0.009485
Li	      1.96008     16.59944     14.63704        -0.033281     -0.014804     -0.022945
Li	      2.00695     16.77806     18.82832        -0.003875     -0.000915      0.008703
Li	      2.00872     24.90019     22.89904         0.003870     -0.002734     -0.001946
Ti	      4.05126     10.34368     10.42833        -0.040273     -0.042514     -0.063338
Ti	      1.99532     10.39934      8.41350        -0.005009      0.088072     -0.007588
Ti	      2.05832      8.34578     10.41921         0.003149      0.013591      0.014324
Ti	      0.01569     10.42234     10.37944        -0.001435     -0.063966      0.007536
Ti	      0.02690     12.56753     12.52121         0.032622      0.050940      0.065015
O	      2.01049     20.83922     20.86227        -0.003208     -0.000994      0.001606
O	      2.08277     22.86371     22.97528        -0.022397     -0.018769     -0.000062
O	      2.05917      6.23234      6.26302         0.017384      0.012438      0.009464
O	      2.05668      8.34197      8.33439         0.020554      0.018283      0.008485
O	      2.03063     10.48378     10.51749         0.005695     -0.003257     -0.008911
O	      2.05324     12.43708     12.44541         0.005208     -0.015329     -0.011727
O	      2.02663     14.56915     14.61885        -0.019966     -0.023363     -0.009224
O	      2.02355     16.67940     16.69078        -0.016773     -0.028334     -0.012242
O	      1.93445     18.81500     18.75081         0.032386      0.026154      0.013365
