# total energy = -91.14690111 eV
 
CRYSTAL
PRIMVEC
-0.008934 2.084877 2.161882 
4.028803 -2.105176 2.165551 
4.014060 6.269509 -6.517875 
PRIMCOORD
16 1
Li	      2.12378      2.20153     -0.12343        -0.002407      0.013887      0.000516
Li	      4.03261      4.29602     -0.23317         0.024527     -0.020562     -0.013464
Li	      5.94691      4.12601     -2.09308         0.010696      0.004576     -0.005322
Li	      3.92625      4.04811     -4.18450         0.022309      0.011263     -0.003507
Mn	      4.04042      8.32591     -4.33027        -0.058877     -0.020364      0.020484
Mn	      4.04375      0.02982     -0.00892        -0.014271     -0.006737     -0.008213
Ni	      6.01394      6.20428     -4.29367        -0.025166     -0.020546      0.023229
Ni	      6.03988      2.09710     -0.09128        -0.079321     -0.046955      0.002297
O	      6.18413      6.26716     -2.24618         0.048687     -0.096535      0.079557
O	      5.97478      3.98750     -0.00080        -0.004426      0.170769     -0.041631
O	      4.02257      6.37552     -4.52762        -0.093804     -0.001784     -0.024017
O	      1.90283      2.20722     -2.14765        -0.044067     -0.097122      0.018980
O	      3.87475      4.17758     -2.21095         0.178594     -0.012744      0.009375
O	      2.05136     -0.04799      0.09555         0.024195      0.090547     -0.065183
O	      4.06185      1.97071      0.14428        -0.080872      0.012529      0.015078
O	      4.09125      0.00415      2.22291         0.094203      0.019778     -0.008180
