# total energy = -137.86470812 eV
 
CRYSTAL
PRIMVEC
0.000020 2.114254 2.113906 
6.112084 0.061198 6.280541 
10.312772 6.449415 4.121164 
PRIMCOORD
18 1
Li	      8.11810      2.32950      6.12783        -0.035197      0.012183     -0.016943
Li	     12.37794      6.33355     10.57719         0.036846     -0.012845      0.013960
Li	      6.34163      4.35167      6.21884         0.008529      0.016039     -0.016115
Li	      8.04224      4.25006      4.20485        -0.013203     -0.013673      0.016858
Ti	     10.38556      8.51152      6.28566         0.064677     -0.035345      0.035202
Ti	     10.18632      4.34139      6.22825        -0.223374      0.094976     -0.097922
Ti	     12.34897      8.58214      8.32874        -0.009712      0.002834      0.000504
Ti	      4.19739      4.26037      4.19470         0.224670     -0.095979      0.096684
Ti	      3.99777      0.08936      4.13700        -0.057988      0.038300     -0.033445
O	      2.10326      2.14673      2.07938        -0.038891      0.021181     -0.021637
O	     10.24776      4.33130      8.35165         0.001661      0.001897      0.000068
O	     12.28022      6.45426      8.34315         0.037738     -0.021672      0.019540
O	      4.19945      2.17278      4.16784        -0.022016     -0.006308      0.004304
O	      6.07026      4.27877      4.17665        -0.239898      0.020139     -0.020731
O	     14.41749      6.59464     10.31673         0.045202      0.015380     -0.018611
O	      6.07830      2.06751      6.38696        -0.039771     -0.021254      0.020633
O	      8.31365      4.32320      6.24645         0.239498     -0.019753      0.020658
O	     10.18514      6.42853      6.25482         0.021228      0.003899     -0.003008
