# total energy = -136.92418613 eV
 
CRYSTAL
PRIMVEC
0.000288 2.101572 2.101779 
6.262604 -0.032818 6.339007 
8.379252 6.356057 2.051583 
PRIMCOORD
18 1
Li	     10.45210      4.46403      6.04691         0.013522     -0.044508      0.044625
Li	     10.46974      8.19575      6.51944        -0.007240      0.047007     -0.049412
Li	     12.26506      6.32750      6.28332         0.065365     -0.000157      0.002274
Li	      8.65491      6.33081      6.28129        -0.057644      0.003435     -0.005353
Ti	      6.29376      2.08691      8.42335         0.064980     -0.001913      0.013785
Ti	      8.45930      4.17160      8.44027         0.089026      0.008870     -0.006538
Ti	      4.09427      2.13090      2.07499        -0.102748     -0.033994      0.030975
Ti	      6.24228      4.21040      2.09461        -0.050217      0.018086     -0.026220
Ti	      6.26875      2.10535      4.19925        -0.026705     -0.007431      0.011528
O	      2.04842      2.10508      2.09910        -0.045834      0.016057     -0.028239
O	      4.22980      4.23199      2.07536         0.030115      0.003746      0.001370
O	     12.64819      6.23937      8.47332         0.073338      0.001856      0.006707
O	      4.25094      2.17240      4.13490         0.074453      0.000871     -0.009740
O	      6.29878      4.20220      4.20477         0.017864     -0.025150      0.039567
O	      8.27324      6.41689      4.09336        -0.073467     -0.007651     -0.000879
O	      6.25127      2.10003      6.30724         0.009395      0.024105     -0.032752
O	      8.28803      4.12665      6.38413        -0.066716      0.000418      0.006208
O	     10.46028      6.32933      6.28370        -0.007487     -0.003647      0.002094
