# total energy = -138.27715910 eV
 
CRYSTAL
PRIMVEC
-0.001811 2.075210 2.076772 
18.628857 -0.130188 18.805444 
6.219249 2.068556 4.154947 
PRIMCOORD
18 1
Li	     18.51408     -0.03896     18.71540        -0.006224      0.001569      0.002481
Li	     14.60968      3.99392     14.68084         0.005199      0.002555     -0.001722
Li	     16.47715      2.01773     14.58242         0.030946     -0.001371     -0.002095
Li	     16.64688      1.94000     18.81343        -0.030322     -0.000595      0.002323
Ti	      8.22452      2.03975      6.25969        -0.029303     -0.000174      0.005512
Ti	     10.35603      2.04110      8.33376        -0.000082     -0.001359     -0.002624
Ti	      6.27011      2.04759      8.33108         0.029390     -0.001096     -0.008527
Ti	     18.55858      2.02508     16.65582        -0.084057      0.009345     -0.026082
Ti	     14.56570      1.93184     16.74066         0.082315     -0.010453      0.028701
O	     20.69079      1.93847     20.88938         0.000578      0.017497     -0.033061
O	      4.08999      2.04393      4.18280        -0.030272     -0.044798      0.044766
O	      6.15556      2.10717      6.19643        -0.088300     -0.025548      0.026455
O	      8.33716      1.97948      8.39435         0.095052      0.026794     -0.023513
O	     10.40494      2.04436     10.40630         0.029512      0.043979     -0.041516
O	     12.43158      2.01817     12.50730         0.004988     -0.009463      0.026134
O	     14.43594      1.93658     14.65694        -0.005522     -0.018598      0.046140
O	     16.56315      1.97864     16.69841        -0.019759      0.000498     -0.002117
O	     18.68790      2.02103     18.73897         0.015862      0.011219     -0.041256
