# total energy = -138.24166830 eV
 
CRYSTAL
PRIMVEC
0.001872 6.214650 6.247387 
6.249799 0.000524 6.248740 
6.250388 4.143870 6.248497 
PRIMCOORD
18 1
Li	      2.11437      6.21682      8.33068         0.010140     -0.000379      0.003953
Li	      4.16876      6.21732     10.38419        -0.000968     -0.002398     -0.007541
Li	      6.22037      6.21699      8.32998        -0.001255     -0.001327      0.003344
Li	     10.42184      6.21773     12.52419        -0.008698     -0.002754      0.010416
Ti	      6.21198      4.14428      6.28944         0.086364      0.007716     -0.105313
Ti	      2.12529      2.07419      4.12526        -0.094482     -0.007785      0.089021
Ti	      6.20843      4.14469     10.37131         0.107089      0.000747      0.100821
Ti	      2.12964      4.14465      6.29368        -0.102656      0.000198     -0.122980
Ti	      4.16901      4.14571      8.32914        -0.003370     -0.001252      0.013984
O	      8.32780      2.07441      8.33338         0.088253     -0.002575     -0.008171
O	      4.16687      2.07327      4.17225         0.006493      0.004376     -0.092221
O	      6.24586      2.07311      6.25577        -0.005394     -0.002612      0.000717
O	      8.34065      4.14580     10.40848         0.002545      0.003326      0.006225
O	      4.16988      4.14464      6.24028         0.006097      0.001462      0.102051
O	      6.25797      4.14436      8.33105        -0.090065      0.003491     -0.008672
O	      8.34578      6.21667     12.50562        -0.012094      0.001830      0.002983
O	      4.16846      6.21682      8.33070         0.003723     -0.002970     -0.009707
O	      6.24314      6.21637     10.40342         0.008278      0.000908      0.021089
