# total energy = -138.49539318 eV
 
CRYSTAL
PRIMVEC
-0.061952 18.560589 18.961915 
2.039398 2.060736 4.208467 
2.038800 6.187816 4.205990 
PRIMCOORD
18 1
Li	      0.00013     18.55859     18.90767        -0.008376      0.003694     -0.007462
Li	      3.99071     16.49696     16.89358         0.006261      0.002283      0.008211
Li	      4.01317     18.55925     18.95636         0.021312     -0.000720     -0.006100
Li	     -0.02241     16.49750     16.84350        -0.027178      0.000731      0.009106
Ti	      0.01882      2.06260      2.10223         0.021973      0.002316     -0.042520
Ti	      2.02671      6.18517      8.42042         0.006630     -0.006960     -0.003894
Ti	      4.03361     14.43233     14.73770        -0.005644      0.002891      0.040629
Ti	      1.98902     14.43370     16.83364        -0.044777     -0.008844     -0.013538
Ti	      2.00111     20.62356     18.96721         0.031870      0.009958      0.026791
O	      2.00552     20.62218     21.07904         0.005699     -0.003423     -0.020452
O	      2.03474      4.12279      4.22802        -0.015565      0.002403      0.044886
O	      2.07642      6.18619      6.27832         0.009731      0.015663      0.013333
O	      2.02610      8.24859      8.42019         0.005449     -0.003405     -0.012352
O	      1.97618     10.30826     10.56076         0.003027     -0.001773     -0.016021
O	      2.01766     12.37351     12.61141         0.014653     -0.000636     -0.038748
O	      1.98515     14.43651     14.72273        -0.022656     -0.014476      0.013259
O	      1.99116     16.49709     16.84672         0.014965     -0.001791      0.007022
O	      1.99866     18.56026     18.95430        -0.017375      0.002089     -0.002151
