# total energy = -155.92861705 eV
 
CRYSTAL
PRIMVEC
0.064072 10.470071 10.415890 
4.225304 2.098706 6.270041 
4.251364 8.389098 8.345216 
PRIMCOORD
20 1
Li	      2.12533      4.25965      6.25808         0.002921      0.028999      0.001850
Li	      4.36715     14.66138     14.81178         0.007410     -0.002185     -0.021391
Li	      2.07439      6.28657      8.14709         0.002875      0.001213      0.010755
Li	      4.29066     16.71364     16.66893        -0.006443     -0.020460     -0.004991
Ti	      4.23443      8.38269      8.44650        -0.010241      0.018955     -0.050603
Ti	      6.35996     18.81512     20.82544        -0.036895      0.003074      0.063293
Ti	      4.25418     10.42967     10.38438         0.062436     -0.043489     -0.067343
Ti	      2.16893      2.08908      4.14715         0.041596     -0.042278      0.025183
Ti	      8.44015     14.78848     18.83244        -0.040271      0.082476      0.055941
Ti	      2.26651      8.33400     10.33754         0.021088     -0.041268     -0.028759
O	      6.37895     14.62145     18.66494         0.002249      0.003450     -0.024791
O	      4.25184     12.59600     14.63679        -0.038406     -0.009595     -0.003213
O	      2.07786      4.18246      4.16491         0.002629      0.012404      0.031131
O	      4.29068     14.58680     16.73163        -0.007376     -0.032363      0.049206
O	      6.36508      8.50207     12.45250        -0.015063      0.070992     -0.021892
O	      4.32348      6.23958      8.35854         0.007835     -0.048329     -0.021141
O	      6.41281     10.44873     14.57053         0.018341      0.016610      0.001955
O	      4.27081      8.43166     10.64350        -0.017806     -0.006000     -0.010644
O	      6.39733     12.54800     16.64658         0.002851      0.013073      0.006729
O	      4.23778     10.56353     12.50506         0.000268     -0.005277      0.008724
