# total energy = -156.11372396 eV
 
CRYSTAL
PRIMVEC
0.016142 4.177405 4.224005 
10.502574 2.151147 12.648726 
6.309205 4.202313 6.334991 
PRIMCOORD
20 1
Li	      6.29554      4.38895     10.63573         0.009461     -0.013580     -0.018028
Li	      8.45411      4.23429     12.61261         0.000576      0.013360      0.014036
Li	     10.47528      4.22778     14.67799        -0.004876      0.005678     -0.018203
Li	     10.57374      6.15994     12.65749         0.006649     -0.019983     -0.000737
Ti	     10.64078      6.30176     16.84926        -0.068651      0.028487      0.010397
Ti	      2.07918      4.17234      6.25176         0.033510      0.023901     -0.097175
Ti	      4.26448      4.16718      8.45210         0.032501      0.010004      0.036277
Ti	      2.11790      2.26021      4.24143         0.008612     -0.009049     -0.001904
Ti	     12.54378      6.30429     14.87703        -0.010044     -0.059256      0.022444
Ti	     14.64206      6.23607     16.89910        -0.013805     -0.001907      0.044860
O	     12.59066      4.22988     14.83205         0.007663      0.009124      0.032648
O	      4.20521      6.24173      8.45890        -0.026116      0.031939     -0.009714
O	      6.34206      6.32167     10.67783         0.034740      0.030208      0.007221
O	      8.39919      6.28737     12.69043        -0.027147      0.015587      0.003399
O	     10.44028      6.25289     14.74868         0.045541      0.050930      0.040620
O	     12.65088      6.58890     16.88299        -0.042900     -0.076664     -0.035536
O	      4.22848      4.16959      6.33522        -0.027923     -0.000815     -0.009962
O	      6.31708      4.25105      8.40621         0.043476     -0.007582      0.039019
O	      8.47688      4.19789     10.46879         0.020916      0.030848     -0.017816
O	     10.49075      4.16234     12.52262        -0.022185     -0.061231     -0.041846
