# total energy = -156.13853686 eV
 
CRYSTAL
PRIMVEC
0.088915 10.286232 10.423598 
4.276379 2.055940 6.291029 
4.275781 6.171170 6.290292 
PRIMCOORD
20 1
Li	      4.22015      2.05673      6.21752        -0.013297      0.000489      0.000799
Li	      6.42085      8.22669     10.55197         0.032700      0.003801     -0.025955
Li	      4.31995      6.17307     10.39164        -0.031497     -0.002803      0.017838
Li	      6.51908     12.34362     14.72593         0.014755     -0.001661     -0.001044
Ti	      6.43295     16.45471     18.81686        -0.077425     -0.007706     -0.012373
Ti	      4.37829      4.11517      8.35152        -0.055260      0.004304      0.012890
Ti	      6.35999     10.28484     12.59169         0.077639     -0.002673     -0.017719
Ti	      4.39627      8.23124     12.54833         0.056773      0.013733      0.030693
Ti	      4.40696     10.28480     14.52848        -0.001109     -0.003551      0.061616
Ti	      6.42210     14.40172     16.83846        -0.015294      0.003181     -0.057547
O	      2.28882     12.34188     12.67472         0.000374      0.001998     -0.040164
O	      4.40108     12.34294     14.61344        -0.017002     -0.002482     -0.007979
O	      2.22150      4.11391      4.21607         0.016356      0.000878     -0.024538
O	      4.24573      4.11423      6.27619         0.037169      0.001730      0.003934
O	      2.16620      6.17181      6.27748        -0.013508     -0.001685     -0.027122
O	      4.29708      6.17234      8.37454         0.017444      0.000799      0.028470
O	      2.21721      8.23012      8.37593        -0.031412     -0.002309      0.000187
O	      4.24157      8.23023     10.43583        -0.015313     -0.001456      0.017655
O	      2.15016     10.28758     10.46203         0.023623      0.001711      0.007412
O	      4.26293     10.28854     12.40111        -0.005715     -0.006299      0.032946
