# total energy = -155.95215193 eV
 
CRYSTAL
PRIMVEC
0.023700 4.160185 4.257111 
10.465473 2.178888 12.730754 
6.296956 2.136076 4.236151 
PRIMCOORD
20 1
Li	      8.45092      6.28445     10.63722        -0.000700      0.006649      0.017834
Li	      8.34777      4.27419     12.71422         0.003637     -0.005208     -0.018290
Li	      4.14849      2.27445      6.43272        -0.005439     -0.006793     -0.023064
Li	     12.62876      4.12518     12.66104         0.002591      0.006805      0.025693
Ti	      6.31764      6.21514      8.45137        -0.026641      0.105317     -0.054485
Ti	     10.53993      6.27460     12.85771        -0.061531     -0.007092     -0.050385
Ti	      6.25921      4.28389     10.49545         0.058248      0.004327      0.045697
Ti	     10.48217      4.34557     14.89996         0.030522     -0.108674      0.050955
Ti	      8.31119      4.29033      8.47083         0.027544     -0.054024      0.027133
Ti	      8.46456      2.10829     10.62317        -0.023736      0.055396     -0.021358
O	     12.63391      4.29511     14.88653        -0.003721      0.006787     -0.022247
O	      4.14176      2.10261      4.20765         0.006778      0.002930      0.022902
O	      6.31854      2.14758      6.27371         0.009757     -0.017671      0.002254
O	      8.43466      2.20403      8.56886         0.008674     -0.029197     -0.010773
O	     10.50314      6.52981     14.88651        -0.012529     -0.069518      0.020373
O	     12.58450      6.34272     16.86646        -0.025736     -0.054634      0.023998
O	      4.21607      4.21645      6.48680         0.021645      0.057293     -0.032573
O	      6.29640      4.03102      8.46538         0.004946      0.064821     -0.014965
O	      8.34041      4.19454     10.52571        -0.005006      0.027895      0.010699
O	     10.45729      4.25123     12.82045        -0.009302      0.014589      0.000603
