# total energy = -156.00299526 eV
 
CRYSTAL
PRIMVEC
0.000532 4.245812 4.155490 
10.445224 0.046822 10.343523 
4.177671 4.245399 4.156484 
PRIMCOORD
20 1
Li	     10.45061      4.49156     14.48779         0.003510      0.015049     -0.022349
Li	      8.36041      4.00914      8.32709         0.003262     -0.005409      0.005735
Li	     10.44563      6.42860     12.60615        -0.000794      0.002385      0.003157
Li	      8.35643      2.12675     10.20174        -0.003038      0.001356      0.000537
Ti	      2.10371      0.13642      2.13294        -0.003575     -0.019359      0.008258
Ti	      6.27083      4.33267     10.35525         0.006894     -0.047164     -0.012646
Ti	     12.53849      4.24421     12.44478        -0.007657      0.033846     -0.021859
Ti	      4.16099      6.34000      6.26417         0.004553      0.003138     -0.070813
Ti	      2.09698      2.11739      4.07848        -0.002816      0.007785      0.001285
Ti	      8.35165      6.32745     10.35412         0.008645     -0.017378      0.105462
O	     12.52117      6.45559     16.44044        -0.001891     -0.028558      0.033751
O	      4.18281      2.13714      4.16193         0.003919      0.032546      0.001597
O	      6.26541      2.20867      6.25237        -0.005681      0.042097     -0.029915
O	      8.35673      6.26839     12.35028        -0.000757     -0.026501     -0.056221
O	     10.44191      2.28481     10.44880        -0.006830     -0.011667      0.079268
O	      2.09375      4.20957      4.19785         0.005870     -0.026856      0.004520
O	      4.18569      4.22121      6.22725         0.004176      0.043818     -0.001679
O	      6.27030      4.26898      8.29986         0.004824     -0.004569     -0.016989
O	      8.35877      4.25469     10.30870        -0.007795     -0.003687     -0.034439
O	     10.44840      4.26982     12.46907        -0.004819      0.009128      0.023341
