# total energy = -155.75976418 eV
 
CRYSTAL
PRIMVEC
0.003779 10.503009 10.358957 
4.150297 2.092121 6.225546 
4.152712 10.503896 10.359569 
PRIMCOORD
20 1
Li	      4.15077     12.66417     16.59825        -0.005794      0.015297      0.040976
Li	      4.14709      4.13328      8.10467        -0.008346      0.016390     -0.010707
Li	      6.22776     14.64803     16.62272         0.001027      0.020260     -0.007054
Li	      2.07778      8.48888     10.42020         0.011355     -0.024915     -0.000070
Ti	      2.07238     10.51913     12.44333         0.007472     -0.101631     -0.128885
Ti	      6.21960     12.59490     14.59410         0.044565      0.118611     -0.013730
Ti	      4.15552     14.69489     14.52850        -0.013279     -0.025498      0.079913
Ti	      4.15605      8.43995     12.46589        -0.017141      0.037457      0.101316
Ti	      2.06464      6.31064      8.23331         0.035090     -0.034331     -0.032097
Ti	      4.16752     18.82767     18.63344        -0.060379     -0.064144      0.094690
O	      2.07369     12.63018     12.50476        -0.008093     -0.037180      0.026021
O	      4.14764     12.55957     14.55350         0.018201     -0.008342     -0.020642
O	      2.07950     14.68106     14.49274        -0.007976     -0.003080     -0.005440
O	      4.15319     14.79931     16.47444         0.004325      0.008040     -0.106333
O	      6.22891      8.38552     12.36921        -0.001051      0.042296      0.017557
O	      4.14050      6.16198      8.31532         0.010529     -0.053452      0.015382
O	      2.08854      8.40663      8.39549        -0.020134      0.004171      0.079519
O	      4.15396      8.32043     10.37772         0.011192      0.013069     -0.019534
O	      6.22463     12.62329     16.57762        -0.008987     -0.036829     -0.013871
O	      4.14756     10.57597     12.37303         0.007423      0.113811     -0.097012
