# total energy = -155.72888681 eV
 
CRYSTAL
PRIMVEC
-0.000424 2.074725 2.075449 
10.368029 -0.157335 10.532350 
6.212803 4.172087 2.051629 
PRIMCOORD
20 1
Li	      4.29957      4.08918      4.20776         0.022529      0.000874      0.000960
Li	      6.09784      2.00563      4.21686         0.020519     -0.017318      0.017212
Li	     12.35023      4.08710      8.35786        -0.023565      0.007725     -0.009612
Li	     10.49070      4.15610     10.36434         0.001261     -0.018045      0.021961
Ti	     10.42640      1.98038     12.54605         0.001017     -0.016156      0.018471
Ti	     12.36966      1.89125     10.55467        -0.051037      0.013196     -0.012756
Ti	      8.33112      6.15275      6.29675         0.001022     -0.009084     -0.000397
Ti	     10.31258      4.09546      6.27439         0.013091      0.014792      0.003111
Ti	      8.17008      2.00579      6.29021        -0.009975      0.046416     -0.032784
Ti	      8.36468      1.95580     10.48775         0.072503      0.024082     -0.031666
O	      2.20600      2.01612      2.13126         0.030990      0.018418     -0.016973
O	     14.51194      4.03201     12.55780        -0.044710      0.016869      0.006904
O	      4.17871      1.99761      4.22345        -0.038564     -0.057341      0.066246
O	      6.26696      4.23583      4.06299         0.030784     -0.028612      0.008315
O	      6.18304      1.98022      6.31671         0.040608     -0.023837      0.023638
O	      8.12569      4.08900      6.28346        -0.046467     -0.012881      0.018590
O	      8.25632      1.98493      8.38613        -0.078727      0.010969     -0.009680
O	     10.30340      4.09988      8.34891         0.027549      0.038418     -0.066966
O	     10.35354      2.03970     10.41030        -0.012069     -0.014692      0.013207
O	     12.52283      3.96680     10.55717         0.043241      0.006208     -0.017782
