# total energy = -173.53879707 eV
 
CRYSTAL
PRIMVEC
-0.079664 22.917883 22.825799 
2.088585 2.063345 4.163163 
2.061394 10.424813 8.285482 
PRIMCOORD
22 1
Li	      4.00692     12.46525     12.52774        -0.011431      0.010663     -0.003001
Li	      2.04595     12.32221     10.45434        -0.009969     -0.000418      0.015398
Li	      2.02980     10.57794     12.36353         0.003633     -0.002813      0.009960
Li	      0.12529     10.42164     10.28791         0.005932     -0.001429     -0.000861
Ti	      2.02551     14.58178     12.49375         0.018149     -0.019412      0.021772
Ti	      4.05049     18.66767     18.67135        -0.081017      0.045676     -0.001246
Ti	      2.01054     14.62607     16.60082         0.038963     -0.014342     -0.044059
Ti	      2.02555     16.70868     18.70996        -0.014434     -0.040577     -0.026781
Ti	     -0.00975     16.56762     16.52884         0.011998     -0.011126     -0.016336
Ti	      0.02432     18.75673     18.72721         0.019438      0.012038      0.016904
Ti	      2.00745     22.92844     24.86195        -0.044336      0.040448      0.007401
O	      1.92917     24.95125     24.94976        -0.006959     -0.011561      0.005655
O	      1.97096     27.08244     26.96656        -0.006866     -0.019392     -0.003114
O	      2.07039      6.22395      6.26632        -0.007194     -0.000233      0.008722
O	      2.12869      8.33994      8.28092        -0.016926      0.006938     -0.010699
O	      2.17451     10.30839     10.36879         0.065956     -0.013670      0.010205
O	      1.97070     12.57701     12.44751        -0.024673      0.030299      0.002507
O	      2.08501     14.48298     14.55332         0.019097     -0.001526     -0.014871
O	      2.05386     16.78093     16.59701         0.026218     -0.009619      0.000331
O	      2.05107     18.84615     18.57852         0.019643      0.009656      0.009079
O	      1.99856     20.79854     20.78181        -0.008202     -0.012876      0.013951
O	      2.00733     22.92904     22.79821         0.002981      0.003278     -0.000917
