# total energy = -173.94685102 eV
 
CRYSTAL
PRIMVEC
0.238958 23.400251 23.033383 
2.115447 2.159173 4.177881 
2.158905 8.499114 6.313612 
PRIMCOORD
22 1
Li	      2.15593      8.43460      6.29830         0.008047     -0.005842     -0.028041
Li	      2.18427      8.60493     10.47471        -0.007056      0.011479      0.020303
Li	      0.12903     10.63806     10.46171        -0.005331      0.017189      0.010514
Li	      4.44948     29.80369     29.34291         0.006749     -0.018013     -0.011663
Ti	      2.13164      4.31188      6.26266        -0.020195     -0.023022     -0.008056
Ti	      2.20789     12.72896     10.50966         0.027836      0.025509      0.000608
Ti	      2.16483     10.76633     12.50121        -0.009523     -0.047323      0.003534
Ti	      2.37509     21.14766     18.90887         0.040400      0.007397     -0.022451
Ti	      2.26711     17.05078     18.83458         0.001280     -0.004396     -0.002333
Ti	      2.20535     19.29432     20.89428        -0.047994      0.002296      0.024906
Ti	      2.41603     29.67958     27.30026         0.009717      0.039807      0.001743
O	      2.34752     25.50240     25.14350        -0.012863      0.002109      0.045042
O	      2.32512     27.56297     27.16204         0.007858      0.004765      0.004199
O	      2.16085      6.38989      6.28301        -0.025615      0.003478     -0.009779
O	      2.17050      8.52140      8.38451         0.001118     -0.002644      0.005344
O	      2.18107     10.65063     10.48589         0.016503      0.000840      0.015370
O	      2.25408     12.88274     12.64334        -0.005572     -0.012151     -0.005188
O	      2.23118     14.94177     14.66088         0.016350     -0.005349     -0.043794
O	      2.22432     16.97932     16.73778         0.026267      0.005648     -0.005353
O	      2.22540     19.08257     18.78753         0.001468      0.012623     -0.003205
O	      2.35543     21.35927     21.01565        -0.003617     -0.011917      0.005915
O	      2.35470     23.46184     23.06603        -0.025827     -0.002483      0.002387
