# total energy = -173.79321618 eV
 
CRYSTAL
PRIMVEC
0.000044 2.087415 2.087145 
22.779500 -0.168091 23.127096 
6.229426 2.088680 4.173162 
PRIMCOORD
22 1
Li	     12.30095      1.98079     10.54052         0.007143      0.005894     -0.008048
Li	     10.49311      2.06516     12.54258        -0.001912     -0.004381      0.003817
Li	     24.96125      3.91016     25.30709         0.029596      0.033232     -0.030509
Li	     20.61501     -0.02990     20.89844        -0.028476     -0.035946      0.035882
Ti	     28.92659      1.93338     27.28474        -0.111385      0.009607     -0.003717
Ti	      8.37826      4.09698      8.42407         0.044906     -0.035780      0.033899
Ti	      4.05833      0.02904      4.14233         0.015061     -0.013355      0.007693
Ti	     14.51342      4.11253     14.66932        -0.006161      0.005192     -0.006708
Ti	     18.73744      4.01788     18.93883        -0.024899      0.023818     -0.020542
Ti	     14.41830     -0.04901     14.65535        -0.044131      0.025284     -0.025486
Ti	     16.64999      1.94722     18.92115         0.109292     -0.018024      0.010279
O	     24.77737      1.85899     25.27157        -0.055775     -0.009792      0.003933
O	      4.17317      2.17551      4.08322         0.033959     -0.011053      0.007726
O	      6.21849      2.09757      6.24879        -0.012739      0.035989     -0.035890
O	      8.12034      2.00946      8.42327         0.034611     -0.006280      0.016580
O	     10.33932      2.10139     10.41921        -0.053956      0.034881     -0.032164
O	     12.45682      1.94508     12.66232         0.058308     -0.029283      0.024029
O	     14.67310      2.03891     14.65530        -0.015058      0.008258     -0.008101
O	     16.57836      1.95172     16.82919         0.005319     -0.040812      0.040860
O	     18.62412      1.87231     18.99681        -0.038381      0.006061     -0.003707
O	     20.79874      2.02001     20.93552         0.058250      0.015490     -0.006894
O	     22.78908      1.93982     23.10347        -0.003574      0.001001     -0.002931
