# total energy = -173.78448314 eV
 
CRYSTAL
PRIMVEC
-0.288233 22.790147 23.369634 
2.024806 2.070582 4.224161 
2.025610 6.217510 4.220854 
PRIMCOORD
22 1
Li	      1.79543     24.85965     27.52766         0.011722     -0.001025      0.024646
Li	      1.86156     14.50573     12.78131        -0.012275      0.000995     -0.023795
Li	      1.94033     12.43112     14.69763        -0.011390     -0.000966     -0.026738
Li	      1.71677     26.93464     25.61140         0.010856     -0.000767      0.026973
Ti	      4.00213     10.36025     10.56317         0.047949      0.002746      0.021631
Ti	      1.97114      6.21418      8.46960        -0.001044     -0.001080      0.000997
Ti	     -0.05728      6.21470      6.37635        -0.047408     -0.001944     -0.019115
Ti	      1.83069     14.50352     16.85426         0.015214      0.005654      0.069688
Ti	      1.89401     20.72519     19.21920        -0.009907     -0.007747     -0.069282
Ti	      1.76159     18.64036     21.08750         0.010151      0.006410      0.077497
Ti	      1.82750     24.86192     23.45455        -0.019367     -0.006497     -0.073865
O	      1.73951     24.86034     25.48636        -0.008775     -0.000949     -0.021349
O	      2.00627      4.14211      4.28645        -0.022328      0.000522      0.028005
O	      2.05027      6.21564      6.31884        -0.011805      0.004708      0.013266
O	      1.97211      8.28760      8.46936        -0.001287      0.000170      0.001210
O	      1.89486     10.35920     10.61924         0.013878     -0.002745     -0.017442
O	      1.93773     12.43297     12.65327         0.022223      0.000188     -0.027453
O	      1.91630     14.50517     14.82216         0.009478     -0.000593      0.023237
O	      1.86313     16.57673     17.01948         0.016995     -0.002885      0.001874
O	      1.94308     18.65098     18.98203         0.025428     -0.007079      0.015759
O	      1.71452     20.71452     21.32587        -0.022978      0.007889     -0.019911
O	      1.79349     22.78856     23.28839        -0.015332      0.004997     -0.005831
