# total energy = -173.18186101 eV
 
CRYSTAL
PRIMVEC
-0.000122 2.082448 2.082676 
23.051779 -0.203748 23.112072 
4.191049 2.082173 2.082784 
PRIMCOORD
22 1
Li	      8.34908      2.05945      6.27108         0.005990      0.003504     -0.001074
Li	     14.66588      1.87328     12.70828        -0.005914      0.025659     -0.028379
Li	     12.56956      0.00842     12.49026        -0.005626     -0.009472      0.008371
Li	     23.01333      1.90349     21.00600         0.007853     -0.009786      0.009105
Ti	     23.28839      1.87905     25.19314        -0.090666     -0.013801      0.009791
Ti	      6.21416      2.08433      4.16520         0.011609      0.031339     -0.032288
Ti	     10.45376      2.01898      8.39441        -0.005605     -0.016987      0.025606
Ti	      8.37689     -0.06503      8.39839        -0.015590     -0.035094      0.030615
Ti	     18.85231      1.94718     16.79808        -0.010524      0.051832     -0.052876
Ti	     20.92814      1.94398     18.88293        -0.008398      0.017219     -0.005283
Ti	     25.07015      1.87864     23.11417         0.025654     -0.050193      0.052408
O	     25.38970      1.87991     25.19612         0.077614     -0.007795      0.005367
O	      4.15321      2.05470      4.19250         0.036755     -0.005872      0.004929
O	      6.26028      2.06556      6.26547         0.002337      0.010326     -0.002522
O	      8.35962      2.06452      8.35003        -0.008114     -0.031869      0.026625
O	     10.47236      1.99870     10.49782        -0.015685      0.004215     -0.014122
O	     12.56929      2.09769     12.48165        -0.012923      0.117334     -0.110831
O	     14.66355      1.86612     14.79653        -0.013428     -0.086372      0.086749
O	     16.75712      1.96480     16.78014        -0.017685      0.007434     -0.011374
O	     18.83393      1.89985     18.92781        -0.009484      0.014669     -0.022437
O	     20.92441      1.89734     21.01227         0.006443     -0.009904      0.013556
O	     23.00898      1.90652     23.08369         0.045386     -0.006385      0.008064
