# total energy = -191.08708626 eV
 
CRYSTAL
PRIMVEC
-0.023370 4.223527 4.237461 
6.285589 0.039086 6.282314 
4.179509 6.286799 2.143900 
PRIMCOORD
24 1
Li	      6.35636      6.29894      4.40129         0.007178      0.007288      0.034883
Li	      4.25609      6.16383      6.35222         0.031686     -0.025727     -0.001678
Li	      4.08299      4.25276      8.26134        -0.012525     -0.008272     -0.033335
Li	      6.18322      4.38639      6.31184        -0.024728      0.020420     -0.000827
Ti	      4.17146      6.28117      2.14822        -0.028153      0.010449      0.018271
Ti	      8.36340      6.34728     10.50420        -0.032092     -0.020225     -0.053111
Ti	      6.31748      6.29437      8.48320         0.049823      0.006944     -0.009569
Ti	      4.16469      8.39603      4.26420        -0.013943     -0.002900     -0.005022
Ti	      2.08531      4.20445      2.15345         0.036489      0.057523     -0.006678
Ti	      2.10195      2.16810      4.17953        -0.005979     -0.025730      0.007538
Ti	      4.12291      4.25675      4.17844        -0.030658      0.018843      0.013834
Ti	      8.33896      8.38269      8.48431         0.006341     -0.020400      0.020959
O	      2.11081      2.08601      2.09720         0.011725     -0.007581     -0.003956
O	      4.17435      8.33172      6.33050         0.030111     -0.034907     -0.003944
O	      4.19725      2.13579      4.22543         0.014169     -0.019876     -0.039222
O	      6.24299      8.41406      8.43905        -0.008422      0.011951      0.031523
O	      6.26867      2.20991      6.33379        -0.015981      0.023940     -0.001160
O	      8.32516      8.46781     10.56549        -0.007800     -0.008801      0.007881
O	      2.03498      4.22784      4.34149        -0.020103     -0.002911      0.049302
O	      4.19733      6.32887      4.28513         0.010466     -0.003400      0.048256
O	      4.16604      4.12493      6.21549         0.000028     -0.025110     -0.008546
O	      6.27348      6.42410      6.44697         0.001414      0.034338      0.018673
O	      6.25073      4.22029      8.38378         0.002782      0.006199     -0.030639
O	      8.39757      6.32396      8.31186        -0.001826      0.007945     -0.053433
