# total energy = -92.40997070 eV
 
CRYSTAL
PRIMVEC
0.000026 2.074950 2.074009 
4.093418 -2.125412 2.124581 
4.000199 6.282656 -6.279866 
PRIMCOORD
16 1
Li	      2.09594      1.97935      0.09498         0.004264      0.006298     -0.004841
Li	      3.99283      2.00236     -1.99873        -0.033446      0.000025     -0.002231
Li	      2.10583      0.05176      2.02391         0.031787      0.000749     -0.000235
Li	      4.00152      0.07467     -0.07066        -0.004126     -0.004678      0.005437
Mn	      0.06337      0.02042     -0.01942         0.044356      0.042437     -0.042785
Mn	      6.03507      2.03347      0.04497        -0.043270     -0.042248      0.043367
Ni	      6.00572      4.15383     -2.07558        -0.017463     -0.082916      0.083581
Ni	      4.09307      4.18289     -4.17843         0.019596      0.081927     -0.083216
O	      6.13090      4.08819     -4.08481         0.142770      0.104876     -0.104830
O	      6.11126      1.99922     -1.99526        -0.101212     -0.069110      0.067679
O	      3.98765      6.33746     -4.25892         0.101029      0.068378     -0.067904
O	      2.00603      2.24377     -2.23852        -0.000923      0.041060     -0.041038
O	      3.96793      4.24848     -2.16921        -0.143108     -0.104718      0.106139
O	      1.90300     -0.00825      0.00911        -0.031974     -0.011255      0.010524
O	      4.19546      2.06234      0.01597         0.031204      0.010218     -0.010738
O	      4.09220     -0.18990      2.26410         0.000518     -0.041043      0.041094
