# total energy = -191.33587926 eV
 
CRYSTAL
PRIMVEC
-0.010276 6.202257 6.188128 
8.400206 -0.150897 8.387487 
4.193170 2.057021 2.066192 
PRIMCOORD
24 1
Li	      4.08188      4.15073      4.30371         0.029679      0.001361     -0.002788
Li	      1.98578      2.20006      4.16532         0.030810     -0.007208     -0.015425
Li	      4.29437      6.02347      6.18655        -0.035704      0.015854      0.013036
Li	      2.19709      4.07267      6.04907        -0.033721      0.004577      0.006269
Ti	      4.21862      2.03592      2.11881        -0.000861     -0.009540     -0.062364
Ti	      2.07041     -0.01334      2.04522         0.031563     -0.003957      0.028948
Ti	      4.22939     -0.00022      4.23030        -0.043635     -0.047900      0.019880
Ti	     10.44841      8.07563     14.51523         0.086084      0.006709     -0.052511
Ti	      4.20814      1.91349      6.17471         0.018616      0.026753     -0.054720
Ti	      6.34037      1.90917      8.31636        -0.027974     -0.064645     -0.005335
Ti	      8.34119      6.16435     10.42049         0.005405      0.056530      0.036267
Ti	     10.47178      6.15667     12.56396        -0.030241     -0.004663      0.085722
O	      2.06983      2.04735      2.09916        -0.012235      0.001913      0.025901
O	      4.11905      2.11337      4.14284        -0.002221      0.004118     -0.032444
O	      6.32681      2.00569      6.21396        -0.025203      0.054529      0.013699
O	      8.40377      1.90634      8.47702        -0.003516      0.029724      0.070667
O	     10.47647      4.10188     12.39389         0.005301      0.002338     -0.011270
O	      4.20316      3.97138      6.34662        -0.003257      0.000399      0.006207
O	      6.28175      4.02231      8.35211         0.007065      0.009643     -0.032555
O	      8.39771      4.05140     10.38821         0.006325     -0.013375      0.021379
O	      2.16168      6.11019      6.20869        -0.008178      0.018017      0.044481
O	      4.21078      6.17726      8.25491        -0.002364     -0.001339     -0.016892
O	      6.27630      6.16693     10.26638        -0.009288     -0.043703     -0.061563
O	      8.35258      6.06612     12.52480         0.017550     -0.036132     -0.024591
