# total energy = -191.81645602 eV
 
CRYSTAL
PRIMVEC
-0.049233 4.200409 4.197357 
12.516360 1.981284 14.661589 
4.161575 2.056570 2.092654 
PRIMCOORD
24 1
Li	      6.28547      4.16537     10.53609        -0.034711     -0.031409     -0.000815
Li	      8.28331      4.11689     12.49908         0.011284      0.019546      0.038062
Li	     16.59344      6.18306     18.84758         0.012370     -0.031572     -0.009690
Li	      2.03603      2.09032      4.14219         0.029440      0.009436     -0.008251
Ti	      4.17903      6.15985      6.43367        -0.007408     -0.009682      0.103330
Ti	      6.09771      6.17505      8.37383        -0.007319      0.014307      0.014228
Ti	      4.18898      4.27008      8.40426         0.001134      0.007558      0.019906
Ti	     10.44201      4.04694     14.54410        -0.018070      0.005050     -0.085686
Ti	      4.19373      2.02957      6.17852        -0.031807      0.022377     -0.121624
Ti	     10.42758      4.03967     10.58903        -0.001638      0.027823      0.096420
Ti	     12.38615      4.01861     12.55442        -0.021741      0.001529     -0.032620
Ti	     10.50257      2.13826     12.57408        -0.009188      0.008289      0.026363
O	      2.08635      2.04575      2.10371         0.019544     -0.000329     -0.011972
O	      4.03191      2.17785      4.19668         0.035225     -0.028497     -0.000152
O	      6.27110      2.02668      6.30552        -0.004342      0.003519      0.026980
O	      8.31960      6.19678     12.58484        -0.018390      0.003133      0.021151
O	     10.39908      6.16753     14.67825        -0.004008      0.002753     -0.010680
O	     12.50467      6.13607     16.81481        -0.005210      0.009432     -0.003814
O	     14.55840      6.18101     18.83235        -0.033775     -0.000831     -0.018700
O	      4.15060      4.12306      6.30195         0.032916      0.007990     -0.015796
O	      6.24975      4.10365      8.38155         0.006921     -0.023306     -0.005475
O	      8.33405      4.10401     10.42200         0.002219     -0.014081      0.001091
O	     10.26768      4.22951     12.56388         0.035870     -0.011230     -0.010837
O	     12.53235      4.03705     14.64826         0.010683      0.008195     -0.011420
