# total energy = -208.37918364 eV
 
CRYSTAL
PRIMVEC
0.000043 2.076756 2.076271 
27.900220 -0.185504 27.176905 
4.292525 2.077123 2.075851 
PRIMCOORD
26 1
Li	      4.25911      1.97804      2.17712        -0.017018     -0.001717      0.001258
Li	      2.11291      0.08720      1.98924        -0.022087     -0.032338      0.037153
Li	     14.93995      1.99420     12.54223         0.003690      0.016994     -0.017968
Li	     23.52540      1.95826     20.88117         0.012003      0.003278      0.002402
Ti	      8.47425      2.03996      6.26695         0.001883     -0.002914      0.002387
Ti	      6.68136      1.99837      8.38529        -0.028811      0.001169     -0.011290
Ti	     12.75878      2.04820     10.41264         0.029684      0.048055     -0.055301
Ti	     17.04761      1.95906     14.65248         0.033399     -0.011858      0.014192
Ti	     15.26141      1.97682     16.71038        -0.056839      0.017330     -0.011311
Ti	     21.34124      1.99390     18.77033         0.030138      0.062977     -0.061355
Ti	     25.64019      1.90605     23.01196         0.032868     -0.009756      0.008993
Ti	     23.85672      1.95659     25.03954        -0.048220     -0.026748      0.011760
Ti	     29.94130      1.91614     27.15589         0.001823     -0.070090      0.066626
O	     30.01304      1.99232     29.15632         0.014738      0.010814     -0.013749
O	      4.25500      1.96308      4.26703         0.012434     -0.068341      0.069906
O	      6.43029      2.00944      6.29723         0.014949      0.002238      0.000687
O	      8.82182      2.04466      8.33955         0.029906      0.004112     -0.001089
O	     10.65343      1.99488     10.46571        -0.013473      0.022362     -0.021197
O	     12.80813      1.99689     12.53937         0.003168      0.028070     -0.029716
O	     14.96254      1.99234     14.61849        -0.029780      0.033700     -0.030907
O	     17.42396      1.97589     16.71181         0.008241      0.012916     -0.015795
O	     19.25729      1.96065     18.80298        -0.031912     -0.007066      0.004611
O	     21.39587      1.95684     20.88405         0.004884      0.006310      0.002169
O	     23.53425      1.95933     22.95918        -0.015696      0.005531     -0.004596
O	     25.99694      1.90994     25.08531         0.033577     -0.002935      0.011569
O	     27.89891      1.94561     27.12735        -0.003548     -0.042091      0.040562
