# total energy = -209.03043200 eV
 
CRYSTAL
PRIMVEC
0.402934 27.558869 27.349332 
2.178205 4.257826 6.324365 
2.352240 19.080587 16.860202 
PRIMCOORD
26 1
Li	      2.49833     19.21295     21.05675         0.021989      0.021755     -0.029341
Li	      2.38898     21.26516     22.98850         0.006518      0.007544     -0.002872
Li	      2.73029     42.35054     40.16534        -0.010037     -0.007348      0.007660
Li	      2.61990     44.40363     42.10000        -0.019264     -0.019206      0.027102
Ti	      2.83677     46.56077     44.22098         0.037515      0.014473     -0.062704
Ti	      0.10424      2.13533      2.04987         0.029034      0.031935      0.014393
Ti	      2.26735      8.54112     10.43065        -0.009585     -0.013948      0.008095
Ti	      2.26698     10.61973     12.63073        -0.007708     -0.000562      0.003400
Ti	      2.44797     27.51675     25.37615         0.008224      0.018486     -0.010431
Ti	      4.61601     33.92727     33.75710        -0.025652     -0.029020     -0.011770
Ti	      2.28475     17.05599     18.93344        -0.040452     -0.014027      0.057038
Ti	      2.64140     37.99115     35.86811         0.011441     -0.011338     -0.017726
Ti	      2.47699     25.62880     27.28532        -0.005230      0.004572      0.027225
O	      2.57178     29.70416     29.55005         0.003442     -0.012284      0.007502
O	      2.55938     31.80875     31.57740        -0.000151      0.004969     -0.000327
O	      2.54598     33.91233     33.60854        -0.008697      0.010638     -0.004548
O	      2.55955     35.97750     35.59090        -0.021963      0.006342     -0.004298
O	      2.67764     38.25893     37.91392        -0.005640      0.022006      0.008272
O	      2.23847     12.70409     12.62402         0.010564      0.012801      0.029472
O	      2.33117     14.77906     14.79350         0.031023      0.018503      0.022618
O	      2.32474     16.89192     16.80350         0.010907     -0.026244      0.020730
O	      2.39039     19.16873     19.00074        -0.008165      0.024384     -0.023194
O	      2.38402     21.27878     21.01220        -0.023262     -0.013207     -0.019877
O	      2.48023     23.35734     23.18107        -0.020189     -0.018354     -0.029812
O	      2.44345     25.35886     25.23628         0.017742     -0.016057     -0.005290
O	      2.56016     27.64334     27.56556         0.017598     -0.016814     -0.011319
