# total energy = -208.02957973 eV
 
CRYSTAL
PRIMVEC
-0.015392 27.140148 27.140896 
2.139880 4.178445 6.258818 
2.138295 22.968215 20.872718 
PRIMCOORD
26 1
Li	      2.12242     16.83497     18.64684        -0.011419      0.015711     -0.017932
Li	      4.24592     43.98976     43.95973        -0.001197      0.011600      0.010959
Li	      2.12423     41.61893     39.53668        -0.018782     -0.008853     -0.016594
Li	      2.11037     45.81263     43.98025        -0.007379     -0.025204      0.008591
Ti	      4.15677     27.12265     27.12181         0.132683     -0.014174     -0.024071
Ti	      0.09198      2.08122      2.16585        -0.074956     -0.002023      0.092522
Ti	      0.18493      4.16012      4.18298        -0.185603      0.015240     -0.007071
Ti	      0.11888      6.25744      6.18572        -0.137426     -0.014375     -0.048467
Ti	      4.14007     35.52435     35.47096         0.165531      0.003787      0.056970
Ti	      4.14965     37.59339     37.60588         0.131790     -0.056168     -0.050387
Ti	      0.11949     14.52292     14.61292        -0.107141     -0.049546      0.025055
Ti	      0.06287     20.94759     20.88131        -0.082654      0.041525     -0.024893
Ti	      4.13979     52.20817     52.15923         0.087291      0.008922      0.004203
O	      2.17635     29.21405     29.18061         0.014190     -0.044601     -0.020413
O	      2.40788     31.33067     31.29840         0.282668     -0.022619      0.016925
O	      2.20248     33.42199     33.44170        -0.030727      0.052356      0.021246
O	      2.01358     35.45974     35.43137        -0.050236      0.035551     -0.077561
O	      2.02287     37.63295     37.54726        -0.057015      0.075552      0.018668
O	      2.10547     39.58332     39.73323        -0.001480     -0.036961     -0.008794
O	      2.21707     14.65475     14.60563        -0.017814      0.021246     -0.052971
O	      2.10680     16.63246     16.61499         0.036478      0.018500     -0.030882
O	      2.12430     18.86622     18.87750        -0.007172     -0.002705      0.031942
O	      2.16627     20.83135     20.89498         0.010347      0.000059      0.030367
O	      2.11146     23.05341     22.88526         0.010772      0.040358      0.002593
O	      2.02037     24.98117     25.07961        -0.036227     -0.040220     -0.013283
O	      2.02210     27.16721     27.20101        -0.044523     -0.022957      0.073279
