# total energy = -256.67340809 eV
 
CRYSTAL
PRIMVEC
0.058906 16.743889 16.769507 
4.241263 8.376280 12.587529 
4.217238 4.191419 4.201671 
PRIMCOORD
32 1
Li	      2.21479     20.92161     23.07941         0.007789     -0.001375     -0.007600
Li	      6.27555     14.76680     16.91366         0.017808     -0.013129      0.003675
Li	      4.32003     16.73769     16.83256         0.000627     -0.000983     -0.006175
Li	      2.05307     12.58244     14.58751         0.003847      0.010360     -0.003518
Li	      4.41325     22.94112     27.17211        -0.006864      0.012047      0.022048
Ti	      4.20302      8.37712     12.52670         0.000319      0.023219      0.009939
Ti	      6.34980     20.93476     23.04596        -0.012955      0.036780      0.004384
Ti	      4.28754     10.44668     14.62950         0.006325      0.003938     -0.047287
Ti	      2.19138     18.86906     20.96995         0.021120     -0.017252     -0.086192
Ti	      4.33738     12.55176     16.73131         0.032249      0.002240     -0.072105
Ti	      4.29736     10.44866     10.56329         0.006959      0.031436      0.073197
Ti	      6.26140     10.44497     12.63948        -0.010928     -0.044951      0.009486
Ti	      4.30774     12.54891     12.64668         0.008495     -0.016229      0.015780
Ti	      6.26025     12.54123     14.71936        -0.035452     -0.051726      0.030318
Ti	      4.35801     18.85435     22.99726         0.009546      0.038873      0.018550
Ti	      6.29039     18.90444     21.00438        -0.066034      0.000711     -0.006307
O	      2.27389     18.83382     18.90387         0.031501     -0.032706     -0.021671
O	      4.23406     18.82723     20.83946        -0.042450     -0.008892      0.010465
O	      6.36236     12.63707     16.84848        -0.011337     -0.000405      0.011792
O	      4.25521     20.93453     23.06932        -0.029370     -0.006700      0.028905
O	      2.11238      6.28043      6.34632        -0.021540      0.017984     -0.000063
O	      4.29400     22.99749     25.13591         0.020117     -0.001719      0.026503
O	      6.43697     16.77278     20.94492         0.024889      0.003937     -0.038152
O	      4.22108      8.34356     10.43625        -0.009961      0.003434     -0.002415
O	      2.22286     10.44661     10.55984         0.043479      0.009864      0.024677
O	      4.09736     10.47319     12.59151        -0.003283     -0.003850     -0.006501
O	      6.44477     20.97073     25.12495        -0.010398     -0.014545      0.014085
O	      4.09440     12.55865     14.70087        -0.046112      0.017812      0.013653
O	      6.43981     23.04294     27.24403        -0.008334     -0.003023     -0.018391
O	      4.22795     14.66023     16.79618         0.026029      0.010728      0.024496
O	      6.41109     25.12416     29.31618         0.036261     -0.003584     -0.012581
O	      4.23054     16.70534     18.93758         0.017658     -0.002293     -0.012994
