# total energy = -256.39861843 eV
 
CRYSTAL
PRIMVEC
-0.024762 16.698696 16.880341 
4.168810 10.439215 14.761405 
4.181151 10.442865 10.537675 
PRIMCOORD
32 1
Li	      0.10960     16.67482     16.85646        -0.018116     -0.008797     -0.007172
Li	      2.07568     18.81384     21.07947         0.020282      0.009635     -0.001893
Li	      6.27786     31.13712     33.69951         0.011742     -0.010515      0.004225
Li	      8.13611     29.30565     33.77759         0.002328      0.011931      0.012662
Li	      2.04788     14.68265     16.80693        -0.023596     -0.014178      0.000232
Ti	      2.11505     16.68985     18.93067        -0.010955      0.059521      0.050625
Ti	      4.14195     12.48774     12.65145         0.004247     -0.074277     -0.056317
Ti	      4.20217     14.72764     18.90038         0.030369     -0.008154      0.127591
Ti	      4.19151     16.71258     16.99180         0.023072      0.137231     -0.200329
Ti	      6.14657     16.67975     18.87885         0.078384      0.001432      0.104803
Ti	      6.29614     18.75749     21.20139        -0.033032      0.068450     -0.019728
Ti	      0.04325     10.39099     10.54273        -0.013549     -0.049666      0.030139
Ti	      2.06630     10.51508     12.71377         0.031186     -0.034895     -0.004113
Ti	      4.22033     22.99193     23.39858        -0.056032      0.005834     -0.168576
Ti	      2.04588     12.48996     14.64533        -0.045804     -0.067660      0.133762
Ti	      4.12152     25.00225     29.44807        -0.022415      0.026292      0.027416
O	      1.95911     18.68782     18.97411        -0.047438     -0.098893     -0.007096
O	      4.18080     18.80581     21.14539        -0.025732     -0.023805      0.010581
O	      6.23796     31.32232     35.82221        -0.022412      0.048934     -0.012318
O	      4.13213     20.85029     23.21278        -0.001051     -0.021190      0.015805
O	      2.13778      6.18992      6.24831         0.022535     -0.021894      0.040695
O	      4.06918     22.92068     25.49796        -0.041219      0.017725     -0.037681
O	      2.04417      8.37588      8.55511        -0.005778     -0.000780     -0.018777
O	      4.20355     25.07989     27.34901         0.019906      0.002258      0.006666
O	      2.20656     10.40768     10.59743         0.033311     -0.016470     -0.020546
O	      4.18446     27.11355     29.50843         0.065903      0.006362     -0.003639
O	      6.23712     23.11110     27.30247        -0.032918      0.035443      0.025951
O	      4.15115     12.54091     14.72701         0.011850      0.008503     -0.061346
O	      6.27959     25.03997     29.47161         0.018095      0.008344     -0.000892
O	      4.16591     14.60225     16.81290         0.005639      0.016876      0.027692
O	      2.11280     16.67944     16.85563         0.020943      0.016078      0.049188
O	      4.14474     16.87409     19.08132         0.000255     -0.029675     -0.047609
