# total energy = -90.97118860 eV
 
CRYSTAL
PRIMVEC
-0.000412 2.060272 2.188368 
4.024940 -2.089848 2.218713 
3.997355 6.244673 -6.637023 
PRIMCOORD
16 1
Li	      2.03113      2.06913     -0.01840         0.032493      0.023241     -0.006029
Li	      3.92305      1.97312     -1.96005        -0.020060     -0.012702      0.046019
Li	      2.09799      0.08699      1.95880         0.008549      0.028074     -0.013963
Li	      4.01768      2.18821      1.98555        -0.025099      0.003785      0.016826
Mn	      0.05064      2.08742      2.15541         0.105167      0.021635     -0.013283
Mn	      4.05598      6.20292     -2.22157         0.015207     -0.014604     -0.014242
Ni	      5.96799      4.06265     -2.18578        -0.061762     -0.048709      0.001593
Ni	      1.94944      4.13503     -2.04821         0.147256      0.065179     -0.032488
O	      6.00422      4.06051     -4.26557         0.047132      0.102982     -0.103168
O	      6.14911      4.06261     -0.12861         0.018551      0.006671      0.069625
O	      4.01682      6.18713     -4.58591         0.107643      0.054206     -0.084151
O	      1.98386      2.26038     -2.20706         0.013175     -0.198801      0.092616
O	      3.94632      4.27741     -2.29324        -0.004911      0.007738     -0.000645
O	      1.86878      2.04675      2.16998        -0.116385     -0.008582      0.019216
O	      4.12789      2.07882      0.01752        -0.251131      0.011224     -0.014184
O	      3.98158     -0.17500      2.44772        -0.015825     -0.041338      0.036257
