# total energy = -256.57002649 eV
 
CRYSTAL
PRIMVEC
0.044826 4.188171 4.188518 
17.245732 2.246816 18.874097 
4.323392 4.204565 4.216996 
PRIMCOORD
32 1
Li	     12.89302      8.46608     16.72958         0.014667     -0.004596      0.006481
Li	     15.20925      4.34836     18.81372        -0.019058     -0.030409     -0.014297
Li	      6.57980      6.35403      8.54260        -0.002969      0.001072     -0.004735
Li	      8.57690      6.28813     10.50219         0.017436     -0.007165      0.003968
Li	     10.85985      2.22410     12.64398        -0.010177      0.012803     -0.008760
Ti	     17.37914      6.39535     22.96107        -0.023597     -0.038838      0.000364
Ti	      6.39780      8.37948     10.60763         0.054137      0.015443     -0.035831
Ti	      4.52315      4.22646      8.35345        -0.073300      0.053629      0.051465
Ti	     10.72218      8.46373     14.71769         0.023998     -0.032372     -0.012821
Ti	     14.97631      8.56152     18.85519         0.056529     -0.054348      0.002797
Ti	     13.07722      4.26096     16.69243        -0.009338     -0.041236      0.027692
Ti	      0.15012      2.08093      2.11344        -0.025717      0.079976     -0.001668
Ti	     10.68568      6.43545     12.67130         0.050423     -0.030580     -0.011896
Ti	      8.79751      2.13741     10.49392        -0.062691      0.041471     -0.007263
Ti	     13.04163      2.23024     14.67457        -0.005766      0.004354      0.002430
Ti	     19.18101      6.39360     21.00902         0.040250     -0.014837     -0.005293
O	     19.51958      8.52793     25.14141        -0.001820     -0.011017      0.014214
O	      4.39994      6.31418      8.38262         0.011576      0.003838     -0.037997
O	      6.46124      6.31822     10.53903        -0.009350      0.019684      0.026071
O	      8.53783      6.36635     12.59507         0.004140      0.031496      0.005987
O	     10.96003      6.40321     14.81638         0.007391     -0.018277     -0.018414
O	     13.03843      6.32925     16.81327        -0.022837      0.000793      0.006820
O	     15.17007      6.41934     18.88101         0.025227     -0.002148     -0.009884
O	     17.03659      6.38307     20.93296        -0.048908     -0.005218      0.025327
O	      2.21293      4.17627      4.21719         0.003715     -0.016496      0.011711
O	      4.26136      4.16020      6.25061         0.002932     -0.004632      0.026933
O	      6.64582      4.36991      8.45169        -0.015882     -0.022403     -0.000140
O	      8.58705      4.24840     10.49778         0.014385      0.024817      0.001937
O	     10.71980      4.32016     12.56703         0.025757      0.014232     -0.020336
O	     12.80942      4.28707     14.55979        -0.013851      0.028001     -0.000996
O	     15.18935      4.26688     16.78255         0.015741      0.012149     -0.027470
O	     17.29147      4.31153     18.87543        -0.023043     -0.009186      0.003608
