# total energy = -114.44053675 eV
 
CRYSTAL
PRIMVEC
-0.091306 8.475395 8.080071 
4.191762 4.191983 8.080107 
4.191776 4.192035 4.040029 
PRIMCOORD
16 1
Li	      4.18022      6.43341     10.09730        -0.009554     -0.004916      0.000238
Li	      2.03846      2.15335      4.03741         0.002073     -0.002721     -0.000215
Li	      0.11259      4.07968      4.03661         0.040552     -0.043242      0.001258
Li	      6.14236      8.39672     10.09633         0.003614      0.010803      0.003332
Li	      2.09072      6.29269      8.07734        -0.001478      0.001288     -0.001910
Ti	      4.03894      4.34435      8.07720        -0.298267      0.305333     -0.001206
Ti	      2.08065      8.44953     10.09677         0.075148      0.015290      0.002958
Ti	      4.12495     10.49450     10.09774        -0.013559     -0.071021     -0.003894
O	      2.14374     10.43215     10.09749         0.087276     -0.095943     -0.002766
O	      4.14155     10.62929     12.11768        -0.002029      0.013822     -0.005619
O	      2.19689      4.20598      4.03660         0.304437      0.016992     -0.001488
O	      4.15343     12.61478     14.13719         0.009034     -0.018294     -0.000749
O	      6.10266     10.66352     14.13711        -0.076733      0.086371      0.002673
O	      4.17768      6.18679      8.07759        -0.019449     -0.310041     -0.000556
O	      1.94569      8.43294      8.07681        -0.011252      0.003920      0.004646
O	      4.06386      8.51134     10.09700        -0.089813      0.092356      0.003296
