# total energy = -114.82676125 eV
 
CRYSTAL
PRIMVEC
0.085067 8.118971 8.505055 
4.213850 6.089590 10.672541 
4.128756 2.029796 2.167659 
PRIMCOORD
16 1
Li	      4.22585     10.15089     10.72115         0.037287     -0.001316      0.010694
Li	      4.22290      8.12146     12.75077        -0.034679     -0.000825     -0.015456
Li	      2.26936     10.15051     12.72572         0.039274      0.001530     -0.017983
Li	      2.11869      4.06163      6.39640         0.000844     -0.000212      0.002315
Li	      6.18172      8.12145     10.74270        -0.039844     -0.000773      0.019070
Ti	      2.16046      8.12137     10.64948        -0.002952     -0.000645      0.009005
Ti	      8.33642     12.18052     17.09279        -0.027209      0.002106     -0.074997
Ti	      4.32948     12.18077     17.05071         0.027670      0.000403      0.060939
O	      6.28936      8.12162     12.81801         0.000219     -0.005351     -0.000256
O	      4.31538     10.15089     12.91774         0.054729      0.000716      0.075941
O	      6.18284     10.15088     14.79955        -0.031858      0.001898     -0.091384
O	      4.18965     12.18058     14.97896         0.089393      0.002130      0.034759
O	      6.33286     12.18086     17.07172        -0.010189     -0.002412     -0.003792
O	      4.26095      6.09119      8.49089        -0.082616     -0.000391     -0.025324
O	      2.26755      8.12080      8.66989         0.036502      0.004315      0.097162
O	      4.13488      8.12113     10.55213        -0.056570     -0.001174     -0.080694
