# total energy = -114.78710528 eV
 
CRYSTAL
PRIMVEC
0.000735 4.147266 4.146873 
8.494643 2.088818 10.353627 
4.247247 2.074151 2.073728 
PRIMCOORD
16 1
Li	      8.49433      2.11970     10.32263         0.000808      0.020941     -0.020274
Li	     10.61763      6.15890     12.50592        -0.002244     -0.019390      0.022060
Li	      4.24713      4.11606      4.17856        -0.001773     -0.022473      0.025078
Li	      2.12275      2.15156      4.06985         0.001338      0.022189     -0.019956
Li	      8.49272      4.15622      8.28861         0.002542     -0.001815     -0.004750
Ti	      2.12439      4.19628      6.17334        -0.011068      0.008124     -0.021796
Ti	      8.49498      6.22902     10.36225        -0.003822      0.032132      0.003746
Ti	     10.61690      4.11517     10.40235         0.020763     -0.024739      0.011978
O	      2.12392      2.03542      2.03682        -0.002627     -0.083664     -0.102681
O	      4.40253      1.98957      4.15968         0.105828     -0.093533      0.027802
O	      6.49567      6.22984     10.36203         0.064576      0.000112      0.006644
O	      8.34020      6.24881     12.34275        -0.118248      0.020587     -0.092065
O	     10.61782      6.27510     14.53919         0.004184      0.098594      0.099523
O	      4.09178      4.13555      6.30649        -0.100874     -0.026990      0.090537
O	      6.24628      4.15710      8.28841        -0.057703     -0.011552      0.000574
O	      8.65033      4.24873     10.34237         0.098319      0.081478     -0.026420
