# total energy = -114.65784117 eV
 
CRYSTAL
PRIMVEC
-0.000098 2.090772 2.090495 
15.902469 -0.128143 16.851673 
3.975604 2.090712 2.090366 
PRIMCOORD
16 1
Li	     15.90223     -0.08365     16.81015        -0.001900      0.012020     -0.019293
Li	      3.97485      2.06014      6.29936         0.001300      0.001629      0.000848
Li	     11.92673      4.07575     12.64546         0.001594     -0.015291      0.020284
Li	      9.94124      2.01172     12.62201        -0.001026      0.028556     -0.031809
Li	     13.91680      1.97951     16.83640        -0.000840     -0.033682      0.030982
Ti	      1.98697      2.08297      4.18592         0.000830      0.005294     -0.002299
Ti	      9.93879      2.03679      8.41537        -0.000690      0.006298     -0.011603
Ti	     11.93593      1.99356     14.72662         0.005728     -0.004729      0.007210
O	      1.98739      1.96885      2.20978         0.000520     -0.034981      0.038732
O	      3.97504      2.05207      4.21671         0.000595      0.000421      0.001956
O	      5.96268      2.05976      6.30046         0.002512      0.013743     -0.011665
O	      7.95084      2.06800      8.38417         0.000905      0.005033     -0.008492
O	      9.93898      2.15117     10.39137         0.001437      0.025864     -0.028669
O	     11.92791      1.89920     12.73389        -0.002074     -0.072840      0.071124
O	     13.91394      1.99498     14.72787        -0.009687     -0.003928      0.004411
O	     15.90337      2.09153     16.72228         0.000797      0.066593     -0.061717
