# total energy = -112.83703120 eV
 
CRYSTAL
PRIMVEC
-0.000391 4.191628 4.193435 
7.890592 -0.006431 8.392530 
3.944980 4.191315 4.193352 
PRIMCOORD
16 1
Li	      3.94774      8.12699      8.38882         0.008068      0.036549      0.004391
Li	      3.94800      4.44565      8.38917         0.008026     -0.041195     -0.000528
Li	      3.94790      6.28757      6.54885         0.005633     -0.007684     -0.044050
Li	      1.97668      2.09467      4.19517         0.013295     -0.003573      0.003439
Li	      3.94780      2.09421      6.03630         0.007506      0.004671      0.041830
Ti	      1.98695      4.19121      6.29209         0.018721     -0.008454      0.012835
Ti	      5.92785      4.18809     10.48994         0.008626      0.004674     -0.018775
Ti	      9.72609      6.28240     12.58617        -0.333635      0.023411     -0.011288
O	      9.87316      6.27763     14.59982        -0.002757      0.055071     -0.086320
O	      3.95373      6.28592      8.38920        -0.023838      0.007343     -0.002999
O	      5.92813      2.09526      6.37748         0.000094     -0.052669      0.101628
O	      7.90164      6.28291     12.58585         0.334328     -0.001216     -0.000535
O	      9.87494      4.26959     12.59025        -0.010487      0.086288     -0.053569
O	      3.95774      4.19006      6.29198        -0.014073      0.000720      0.002145
O	      5.92951      4.10572      8.38851        -0.010085     -0.104634      0.046755
O	      7.90585      4.18680     10.48899        -0.009423      0.000697      0.005039
