# total energy = -132.72397950 eV
 
CRYSTAL
PRIMVEC
0.014997 6.204201 6.211774 
6.298426 2.069130 8.296436 
6.298767 6.204914 8.296789 
PRIMCOORD
18 1
Li	      6.36977      8.27489     14.46604        -0.001673     -0.003662     -0.008986
Li	     10.40105     12.41053     18.72622        -0.018412     -0.000434      0.000823
Li	      8.45996      8.27460     12.63508        -0.012184      0.000373      0.026313
Li	      4.12812      2.06978      6.14244         0.029286      0.000517      0.001377
Li	      2.15883      4.13810      6.07632         0.032742     -0.000958      0.007183
Ti	      2.15553      6.20534      8.18450         0.012934      0.005125     -0.211427
Ti	      6.30596      8.27276     10.37036        -0.046837      0.014445      0.095713
Ti	      6.31718     10.34254     12.45691         0.081014     -0.009792     -0.125760
Ti	     10.46361     10.34170     16.59104        -0.090148      0.010399     -0.009284
O	      8.40217     10.34260     16.59209         0.009155     -0.006420     -0.052944
O	      4.30437      8.27371     10.28620         0.082535     -0.001132     -0.151337
O	      6.31866      8.27438     12.42064        -0.008663     -0.004732      0.006780
O	      8.27387      6.20620     12.35014        -0.059630      0.001823      0.012833
O	      4.30172      4.13852      6.30698         0.079815     -0.004272      0.172026
O	      6.23841      4.13734      8.29788        -0.079793      0.000768      0.000270
O	      8.41919      8.27484     14.62626        -0.023613     -0.002769      0.268441
O	      4.18651      6.20577      8.31540         0.006338     -0.002699      0.009666
O	      6.30460      6.20515     10.36661         0.007132      0.003419     -0.041686
