# total energy = -92.40351818 eV
 
CRYSTAL
PRIMVEC
-0.000693 2.062054 2.065272 
8.168155 -4.219669 4.223158 
2.022906 2.113518 -4.182710 
PRIMCOORD
16 1
Li	      2.12041      1.99922      0.06971         0.013126      0.002323     -0.001449
Li	      2.09335     -0.01878      2.08685         0.000848     -0.016593      0.009215
Li	      6.12315      2.03381      0.03692        -0.002669      0.006616     -0.004798
Li	      6.01083     -0.06156      2.12888        -0.032997     -0.000440      0.001546
Mn	      0.10017      0.01015     -0.00863         0.059379     -0.004475      0.004971
Mn	      4.13073     -0.00159      0.00671         0.061382     -0.006759      0.004574
Ni	      8.01893      0.02096     -0.02510        -0.066087     -0.046825      0.060470
Ni	      8.10717     -2.08467      2.08266         0.054561     -0.026695      0.039096
O	      2.01890      2.24445     -2.25038         0.096348      0.025328     -0.019424
O	      5.99613     -0.00719      0.01510        -0.175928     -0.007652     -0.002001
O	      6.15682     -2.17329      2.17582        -0.133969      0.129735     -0.125907
O	      8.30476     -0.04354      2.10553         0.080736      0.028449     -0.029057
O	      8.19141     -2.20941      4.27951         0.079611     -0.094029      0.078347
O	      1.97872      0.00909     -0.00577        -0.013118      0.005153     -0.006859
O	      4.06364      1.95190      0.11846        -0.008777     -0.010973      0.004415
O	      4.04436      0.12409      1.94284        -0.012446      0.016835     -0.013140
