# total energy = -90.41382076 eV
 
CRYSTAL
PRIMVEC
0.004015 2.240592 2.039552 
4.068019 -2.255520 2.054907 
4.062451 6.751497 -6.141769 
PRIMCOORD
16 1
Li	      2.28357      2.50439     -0.14336         0.015216     -0.025758      0.014591
Li	      4.06810      2.25411     -2.02308        -0.018780     -0.007990      0.019416
Li	      4.20154      0.27550     -0.07590        -0.029213      0.001486      0.006144
Li	      3.91482      6.45884     -1.93284         0.018174      0.008828     -0.012679
Mn	      8.12565      6.70742     -2.07643         0.044300      0.011248     -0.023824
Mn	      6.06306      6.72523     -4.10513         0.004481      0.010394     -0.024110
Ni	      5.94133      4.39342     -1.90096         0.039087      0.106213     -0.070917
Ni	      2.04787      4.38810     -2.04668         0.059834      0.049801     -0.055243
O	      6.16353      6.61463     -2.12956         0.052613      0.034812     -0.033379
O	      6.10717      2.43180     -1.96286        -0.005416     -0.120030      0.014655
O	      4.09464      6.97044     -4.11648         0.046284     -0.003605     -0.030260
O	      2.06839      4.53777     -0.13047        -0.003311     -0.058241      0.151541
O	      3.98133      4.54391     -2.08103         0.026762      0.001091      0.014638
O	      1.90957     -0.05413      0.10781        -0.067497     -0.004574     -0.007443
O	      4.22799      2.22460      0.03356        -0.175327     -0.004508      0.011931
O	      3.93787     -0.31126      2.03780        -0.007207      0.000834      0.024940
