# total energy = -132.80901031 eV
 
CRYSTAL
PRIMVEC
0.000235 6.454670 6.113303 
6.167325 2.180957 8.121034 
4.111707 6.454794 6.113330 
PRIMCOORD
18 1
Li	      6.16732      8.72122     14.23825         0.001905     -0.008419      0.008805
Li	      4.11182      6.47505     10.16704         0.001285      0.001363      0.000642
Li	      4.11224      8.56410      8.25909        -0.001954      0.026907      0.028559
Li	      2.05601      2.20215      3.95402         0.001349     -0.027703     -0.026918
Li	      6.16802     10.67980     12.20895        -0.000544      0.008072     -0.006784
Ti	      6.16793     12.85526     14.29705        -0.003037      0.114191      0.063604
Ti	      8.22373      8.55840     12.18455        -0.000915      0.057828     -0.097802
Ti	      6.16798      6.54565     12.15082        -0.002921     -0.112021     -0.064508
Ti	      4.11193      4.38910      8.15085        -0.005056     -0.068756      0.084692
O	      2.05607      8.46411      8.05418        -0.000676      0.000504     -0.129406
O	      4.11207      8.75542     10.27203         0.000998      0.007779      0.138614
O	      6.16811      8.59330     12.23046        -0.002945      0.002737      0.016453
O	      8.22348      6.51673     12.17358         0.001610      0.021471      0.029684
O	      4.11179      4.23874      6.09992        -0.000532      0.022257     -0.041673
O	      6.16703     10.80786     14.21691         0.008593     -0.002810     -0.015599
O	      8.22342      8.70792     14.23437         0.000226     -0.027527      0.034536
O	      4.11177      6.42978      8.16071         0.001480     -0.014212     -0.029138
O	      6.16765      6.47378     10.16676         0.001135     -0.001659      0.006240
