# total energy = -132.86475413 eV
 
CRYSTAL
PRIMVEC
0.040686 6.089986 6.285890 
6.328386 0.000458 6.326003 
4.207075 2.031755 2.120641 
PRIMCOORD
18 1
Li	     10.52043      2.03367      8.43625         0.000763     -0.002045      0.000399
Li	      6.23908      4.13084      6.33710        -0.044151     -0.004866      0.003252
Li	      8.42550      4.08965      8.50945        -0.006554     -0.018933      0.007098
Li	      0.10451      4.03646      4.18061        -0.004187      0.015573     -0.007039
Li	      4.25671      3.99547      8.32096         0.000731      0.002596     -0.047618
Ti	      6.43597      2.03297      4.35315         0.022202      0.019365      0.021259
Ti	      8.38948      2.03354      6.30536         0.040641      0.004154      0.034104
Ti	      6.33041      2.06589      8.40255        -0.064273      0.045328     -0.005592
Ti	      6.32049      6.05883      8.41107        -0.003329     -0.052545     -0.071753
O	      2.06848      1.99124      2.09108        -0.017670     -0.049022     -0.005094
O	      4.30012      2.02279      4.19372         0.027223     -0.014784      0.014012
O	      6.31198      2.05014      6.36125         0.024369     -0.015344     -0.006518
O	      2.21036      4.06309      4.29305         0.063894      0.001086      0.078593
O	      4.11127      4.06264      6.19363        -0.037463      0.004249     -0.046686
O	      6.33037      4.06285      8.41185         0.001178      0.005754      0.002376
O	      2.10946      6.10306      6.38489         0.017078      0.000193      0.018949
O	      4.27986      6.07520      8.39287        -0.018659      0.010091      0.034133
O	      6.33626      6.13433     10.47627        -0.001792      0.049149     -0.023874
