# total energy = -132.34248995 eV
 
CRYSTAL
PRIMVEC
-0.040619 6.368347 6.369735 
6.171452 2.151571 8.423592 
6.171312 4.241471 6.333204 
PRIMCOORD
18 1
Li	      6.06570      4.20064      6.29117        -0.023246     -0.002116     -0.003533
Li	     10.22961     10.65939     16.93258         0.007282     -0.004669     -0.004561
Li	      6.17025      4.35246     10.62018        -0.017229      0.010112      0.013852
Li	      2.15025      2.10423      4.19790         0.022783     -0.015564     -0.017332
Li	     10.26880      6.30917     12.58213         0.006312     -0.009491     -0.010149
Ti	      8.05364     10.64497     14.82373        -0.005541      0.044678      0.055297
Ti	      6.03029      8.45082     10.54297        -0.393693     -0.074447     -0.075001
Ti	      2.10040      4.28179      6.37149        -0.001920     -0.026834     -0.026611
Ti	      4.16401      4.26543      8.44559         0.155963      0.034072      0.029032
O	      8.23719      4.16501     10.43411        -0.055220     -0.089668     -0.092470
O	      4.19069      8.49639     10.58850         0.355988     -0.007955     -0.008054
O	      6.21890      8.43041     12.61258         0.057602     -0.020335     -0.023221
O	      8.19600      6.49311     12.76509         0.035634      0.071941      0.070725
O	      4.13696      4.29382      6.38339        -0.097218     -0.007527     -0.006147
O	      6.15648      4.25602      8.43520         0.019901      0.003631      0.003270
O	      8.14975      8.54009     14.81032        -0.012164      0.009965      0.012842
O	      4.03779      6.30041      8.38987        -0.046135      0.015106      0.013490
O	      6.20267      6.46769     10.64977        -0.009098      0.069104      0.068571
