# total energy = -132.52836921 eV
 
CRYSTAL
PRIMVEC
0.000621 2.083296 2.083193 
18.990881 -0.274662 19.029321 
6.292263 2.015776 4.235846 
PRIMCOORD
18 1
Li	     25.28302      3.82424     25.34763        -0.001489      0.000684      0.000972
Li	     10.53832      3.97709     10.60826         0.012458      0.010122     -0.010493
Li	      8.64934      1.93929     10.56442         0.016380      0.005015     -0.006909
Li	     16.63046      1.88837     14.78334        -0.017247     -0.008597      0.009538
Li	     14.74388     -0.15030     14.73994        -0.014527     -0.008675      0.007862
Ti	      2.16303      2.06229      4.18721         0.055937      0.029863     -0.019897
Ti	     12.50349      1.88887     10.61294        -0.286803      0.046770     -0.043431
Ti	     12.77635      1.93681     14.73636         0.319923     -0.049111      0.042505
Ti	     23.11845      1.76354     21.16100        -0.049001     -0.043288      0.034225
O	     21.06715      1.76301     21.15592         0.030031     -0.037098      0.062815
O	      4.21464      2.06192      4.19297        -0.034400      0.044444     -0.067765
O	      6.38077      1.92969      6.40244         0.020442     -0.060376      0.069050
O	      8.36123      2.03250      8.38880        -0.033238      0.012756     -0.031088
O	     10.66208      1.91609     10.58703         0.318899      0.000204      0.003146
O	     12.64063      1.91292     12.67448        -0.003363      0.004544     -0.003135
O	     14.61963      1.90993     14.76168        -0.337378      0.002629     -0.004151
O	     16.91996      1.79319     16.96011         0.031637     -0.009988      0.025002
O	     18.90104      1.89546     18.94682        -0.028262      0.060103     -0.068245
