# total energy = -132.42697934 eV
 
CRYSTAL
PRIMVEC
0.000250 2.102516 2.101839 
6.074904 0.029686 6.276557 
10.169681 6.342009 4.170421 
PRIMCOORD
18 1
Li	     10.16962      6.34179      4.17104         0.001900      0.003086      0.001823
Li	     10.19530      6.27989      8.43892         0.017050     -0.041747      0.038934
Li	      4.24775      4.28062      4.13210         0.005377      0.002295     -0.003140
Li	     11.99726      4.19706      8.42155        -0.007276     -0.007967      0.005307
Li	      6.04875      2.19611      4.11347        -0.015829      0.040840     -0.038610
Ti	      8.15981      4.21642      8.39887         0.253503     -0.014536      0.011229
Ti	     12.09062      6.37257      6.24263        -0.128072      0.006433     -0.001706
Ti	      4.15375      2.10239      6.30977         0.139157      0.002965     -0.006451
Ti	      8.08543      4.25931      4.15369        -0.277810      0.008234     -0.005773
O	      2.01212      2.10296      2.10404        -0.020036     -0.028972      0.025994
O	     10.01554      4.21879      8.39791        -0.303934      0.011098     -0.013391
O	     12.24132      6.42239      8.29214         0.020548      0.029408     -0.030138
O	      4.00339      2.05290      4.26019        -0.027216     -0.030219      0.029964
O	      6.22832      4.25710      4.15542         0.320876     -0.009136      0.010277
O	     14.23240      6.37230     10.44850         0.021453      0.029796     -0.026370
O	      6.07728      2.12233      6.28910        -0.111339     -0.007147      0.009818
O	      8.12247      4.23774      6.27636         0.000570     -0.001648      0.000918
O	     10.16750      6.35259      6.26339         0.111077      0.007217     -0.008683
