# total energy = -168.61446097 eV
 
CRYSTAL
PRIMVEC
-0.089242 23.094273 22.971003 
2.069510 2.104221 4.163625 
2.045832 10.485249 8.357104 
PRIMCOORD
22 1
Li	      3.97882     12.73916     12.53815        -0.013979     -0.000853      0.000010
Li	     -0.00680      2.09784      2.08752         0.003014      0.001839     -0.005091
Li	      0.12148      4.04661      4.15681         0.014776      0.000678     -0.000751
Li	      2.16818     12.69773     14.54114         0.000655      0.002840     -0.006538
Li	      1.84362     27.18096     25.12241         0.000689     -0.000902      0.007846
Ti	      4.05058     18.87939     18.76001        -0.023716      0.003777     -0.020856
Ti	      1.97417     18.87173     16.76563         0.005648      0.009808      0.006488
Ti	      2.03430     23.04644     20.96214         0.044862      0.043777      0.029507
Ti	      1.97700     16.82813     18.70263        -0.058720     -0.031762     -0.027731
Ti	      2.03391     21.01194     22.89745        -0.004346     -0.024278      0.002600
Ti	     -0.03435     21.00241     20.90794         0.036973      0.000961      0.027892
O	      2.03739     25.17487     24.99522         0.000719     -0.017780      0.007276
O	      2.02802     27.35093     27.13291         0.052819      0.030746      0.002323
O	      1.99169      6.32661      6.24029        -0.001698     -0.003122     -0.004933
O	      2.04985      8.39317      8.34790        -0.002862     -0.001776     -0.000754
O	      2.10928     10.45848     10.45431        -0.005190      0.006004      0.003579
O	      1.98553     12.52985     12.53276        -0.048559     -0.031235     -0.009983
O	      1.97297     14.70601     14.66909        -0.000099      0.017235     -0.005104
O	      2.04613     16.77682     16.66431        -0.002131      0.006038      0.008854
O	      2.00498     18.93256     18.87614         0.000432     -0.002079     -0.004785
O	      2.00805     20.94288     20.78654        -0.000470      0.000275     -0.000080
O	      1.96657     23.10344     23.00135         0.001181     -0.010193     -0.009768
