# total energy = -168.65472821 eV
 
CRYSTAL
PRIMVEC
0.080190 22.818975 23.091330 
2.076613 2.080331 4.199794 
2.094645 8.302632 6.300115 
PRIMCOORD
22 1
Li	      2.22114     31.01965     29.33864         0.007238     -0.005804     -0.004853
Li	      0.13549      6.29616      6.29033        -0.018599     -0.005159      0.011358
Li	      0.06637     10.38738     10.50716        -0.014712     -0.010896     -0.003657
Li	      4.15734     29.10176     29.40666         0.019002      0.007773     -0.009432
Li	      2.12909     29.06497     27.35944         0.005985     -0.002176      0.025382
Ti	      2.10414     10.35463      8.38525        -0.021041     -0.024619     -0.015197
Ti	      2.09148      6.27111      8.41232         0.005748      0.055725     -0.003673
Ti	      2.13125     16.57044     14.71185        -0.028631      0.012822      0.055724
Ti	      2.17640     20.72128     18.91642         0.068859     -0.041941     -0.015839
Ti	      2.09265     16.55721     18.79929        -0.015928     -0.015517     -0.054859
Ti	      4.15624     27.04344     27.29802        -0.035960      0.065248     -0.010094
O	      2.15548     24.85966     25.18336         0.012115      0.011911      0.015014
O	      2.14728     26.99904     27.30530         0.037486     -0.021687      0.010122
O	      2.09978      6.13760      6.39704         0.007901     -0.050472      0.033265
O	      2.12579      8.30565      8.40138         0.009311      0.004161     -0.001065
O	      2.12275     10.41892     10.53162         0.012770      0.013196      0.001951
O	      2.11227     12.48527     12.64016        -0.003549      0.008872     -0.003843
O	      2.09928     14.46468     14.67241        -0.024525     -0.006626     -0.038010
O	      2.12213     16.62745     16.74099        -0.003764      0.007585      0.006848
O	      2.08235     18.63576     18.87169        -0.032731     -0.009034     -0.000902
O	      2.11469     20.74355     21.01478        -0.024977     -0.034648      0.001370
O	      2.20685     22.91485     23.00879         0.038001      0.041285      0.000392
