# total energy = -91.63032207 eV
 
CRYSTAL
PRIMVEC
-0.000012 2.104796 2.104469 
4.023037 -2.119824 2.119503 
3.966665 6.305757 -6.304770 
PRIMCOORD
16 1
Li	      2.03188      2.14375     -0.03692         0.007336      0.010206     -0.010552
Li	      3.97279      4.32225     -0.11367        -0.010825     -0.006410      0.007970
Li	      5.94250      6.25790     -4.15022        -0.007127     -0.010645      0.009720
Li	      4.00115      6.18144     -1.97367         0.010606      0.008247     -0.006945
Mn	      0.06007     -0.01720      0.01911         0.036804      0.007283     -0.008163
Mn	      3.94769      0.00818     -0.00662        -0.036980     -0.008300      0.007608
Ni	      5.96230      4.16456     -2.05884         0.007148      0.027173     -0.026903
Ni	      2.01178      4.23587     -2.13049        -0.007476     -0.027145      0.027279
O	      6.13877      4.12556     -4.12336         0.022408      0.076262     -0.077287
O	      5.99837      4.19234      0.01685        -0.000625      0.000357      0.000786
O	      3.98148      6.43389     -4.32604         0.086867     -0.010559      0.008771
O	      1.83564      2.17089     -2.16942        -0.020896     -0.076992      0.077376
O	      3.98701      4.19957     -2.09584        -0.000550      0.000398      0.002621
O	      2.00385     -0.00446      0.00615        -0.000084     -0.000238      0.000552
O	      3.99285      1.96764      0.13827        -0.086736      0.011949     -0.011771
O	      4.01535     -0.01167      2.11846         0.000130     -0.001584     -0.001062
