# total energy = -168.39059881 eV
 
CRYSTAL
PRIMVEC
0.000051 2.073803 2.074565 
22.908194 -0.351131 23.172552 
16.640384 1.862364 14.734204 
PRIMCOORD
22 1
Li	     16.56039      1.77149     14.82474         0.002059      0.022807     -0.023471
Li	     20.68854      1.76613     18.97681        -0.005744     -0.028132      0.028732
Li	     10.52909      1.94433     12.57400         0.003373      0.029757     -0.023815
Li	     14.65868      1.94083     16.72897        -0.001871     -0.022564      0.022783
Li	     18.74103     -0.28562     18.95647         0.005436     -0.004545      0.003983
Ti	      2.18085      2.08857      4.13327         0.084827      0.020454     -0.025277
Ti	      6.29620      1.95572      8.41526         0.016866      0.006942     -0.026107
Ti	     24.92193      1.75731     23.13677        -0.020499     -0.014748      0.033381
Ti	     29.03784      1.62311     27.41917        -0.088832     -0.007292      0.013544
Ti	     33.26216      1.59084     31.60303        -0.084047     -0.009652     -0.000514
Ti	     20.85821      1.76813     23.12578         0.086463      0.003799     -0.000988
O	     24.98247      1.73091     25.23782         0.001515     -0.027821      0.024120
O	     27.06121      1.68020     27.36263        -0.007155     -0.002029      0.001333
O	     29.13894      1.63030     29.48729         0.003292      0.015334     -0.011870
O	     31.26418      1.68229     31.51091         0.058534      0.003156      0.005358
O	     10.39381      1.96092     10.48508         0.008973      0.047747     -0.059284
O	     12.53568      1.84147     12.67902         0.021073     -0.011744      0.007008
O	     14.48774      1.90191     14.69238        -0.007231      0.013645     -0.015872
O	     16.73067      1.80782     16.86390         0.015007      0.004054     -0.004361
O	     18.68007      1.87143     18.87184         0.001737      0.013196     -0.004667
O	     20.82767      1.74835     21.07128        -0.034337     -0.041207      0.052083
O	     22.85824      1.68075     23.21264        -0.059437     -0.011155      0.003902
