# total energy = -168.66050855 eV
 
CRYSTAL
PRIMVEC
-0.000784 2.160003 2.160014 
22.053238 0.576696 23.175288 
22.053219 2.631091 21.120882 
PRIMCOORD
22 1
Li	     21.95835      2.62981     21.12144         0.015358      0.001980      0.001826
Li	      6.10796      2.31518      8.47834         0.004073     -0.002884     -0.003166
Li	     10.06015      2.41979     12.69171         0.020706      0.000267      0.001128
Li	     14.03507      2.52458     16.90667        -0.014938      0.000216      0.001384
Li	     40.06089      3.10031     40.08299        -0.018361      0.002904      0.000532
Ti	     23.95551      2.68510     23.23027        -0.295423     -0.017986     -0.016444
Ti	      4.11314      2.25977      6.36972         0.265733      0.017087      0.014592
Ti	      8.08335      2.36729     10.58439         0.214945     -0.002593     -0.000206
Ti	     12.05222      2.47228     14.79982        -0.121278     -0.000483     -0.000875
Ti	     38.06870      3.04852     37.97592         0.117739     -0.000695     -0.001500
Ti	     42.03759      3.15376     42.18965        -0.188849      0.001907      0.002934
O	     23.98557      2.73726     25.33680        -0.054042      0.001913      0.003192
O	     26.13641      2.78421     27.43850         0.038749     -0.000420     -0.002805
O	     28.14369      2.83822     29.54558        -0.222999     -0.003562     -0.001528
O	     30.12912      2.89105     31.65246        -0.047293     -0.000139      0.001047
O	     32.10555      2.94343     33.75985         0.034491      0.001439      0.002026
O	     12.04374      2.41948     12.69266         0.059176     -0.000614     -0.001714
O	     14.03439      2.47215     14.80033        -0.013991     -0.000740     -0.000985
O	     16.02383      2.52459     16.90779        -0.054682      0.000743      0.000387
O	     18.01557      2.57704     19.01493        -0.026463      0.001302     -0.000826
O	     19.99246      2.62998     21.12165         0.047622     -0.000907     -0.000219
O	     21.97751      2.68332     23.22902         0.239727      0.001266      0.001221
