# total energy = -186.16611606 eV
 
CRYSTAL
PRIMVEC
-0.000151 8.487322 8.373740 
6.177957 4.258088 10.452506 
4.118739 8.487537 8.373517 
PRIMCOORD
24 1
Li	      4.11815     10.60969     10.46853         0.000102     -0.000315      0.000554
Li	      4.11800     10.87475     14.75316        -0.000090      0.009176     -0.003835
Li	      6.17769     12.79013     14.73585        -0.001114     -0.011087      0.002677
Li	      4.11828      4.20129      8.27893         0.000666      0.008068     -0.000835
Li	      6.17781     14.60315     16.63586        -0.000719     -0.009189      0.002177
Ti	      4.11950      8.40123      8.38022        -0.006813      0.058083      0.040083
Ti	      6.17568     16.96174     18.84521         0.009949     -0.053043      0.055300
Ti	      4.12009      8.51538     12.54418        -0.009966      0.053662     -0.058372
Ti	      6.17759     10.46055     12.64542        -0.001028      0.010960      0.080572
Ti	      6.17585      8.58893     14.63546         0.011626     -0.058783     -0.051580
Ti	      4.11772     14.85334     14.65469         0.000233      0.006158     -0.001029
Ti	      4.11830      6.52919     10.37016         0.000587     -0.010752     -0.076047
O	      2.05807     10.60919     10.46900         0.007020      0.004161     -0.003130
O	      4.11856     10.62284     12.59872        -0.006832      0.035058      0.015775
O	      6.17757     10.61741     14.68230        -0.001445      0.010949      0.063720
O	      2.05802      4.16772      4.17681         0.005952      0.034841     -0.027182
O	      4.11790     12.85446     14.57698         0.000848      0.068964     -0.053380
O	      6.17813     12.62360     16.81216        -0.002093     -0.076226      0.053344
O	      2.05921      6.36613      6.28120         0.000529     -0.000823     -0.001233
O	      4.11826      6.37291      8.33300         0.001393     -0.010903     -0.065253
O	      6.17734     14.85469     18.79077         0.002358     -0.037564     -0.015521
O	      8.23768     12.82216     18.83853        -0.005688     -0.035329      0.029619
O	      4.11661      8.67895     10.46123         0.003197      0.019486     -0.028031
O	      6.17952      8.31074     12.55362        -0.008675     -0.015551      0.041609
