# total energy = -186.45716716 eV
 
CRYSTAL
PRIMVEC
-0.038382 8.337375 8.313183 
6.267181 6.224660 12.469367 
4.183375 2.060756 2.082670 
PRIMCOORD
24 1
Li	      8.35756     10.45196     14.64723        -0.005140     -0.004384     -0.000341
Li	      6.29194     12.45121     14.61608        -0.002824     -0.013326     -0.025368
Li	      8.23854     12.41131     16.55812         0.000160      0.017286     -0.003209
Li	      6.29335     12.42693     18.62318        -0.008318      0.016807      0.020889
Li	      2.02662      6.31360      8.32343         0.003459     -0.003840     -0.007902
Ti	      4.02954     10.30665     10.36349        -0.017953     -0.046797     -0.038158
Ti	      2.12638      8.32827     10.43134         0.003990     -0.037299      0.050980
Ti	      4.14688      4.18036      4.22565         0.047310      0.006334      0.047211
Ti	      4.10658      6.15529      6.21220         0.047247     -0.002326     -0.015603
Ti	      2.17078      4.23276      6.23985        -0.009786      0.010975      0.033122
Ti	      4.15998     12.46224     16.56594        -0.047211      0.005087     -0.056696
Ti	      4.15519      6.30527     10.38048        -0.008612      0.058589      0.011658
O	      8.28396      8.33609     14.56408         0.007518     -0.008269      0.023137
O	      4.18645     10.42939     12.40150         0.017673     -0.006124     -0.016469
O	      6.26324     10.40197     14.54183        -0.012616     -0.015045     -0.009664
O	      2.07645      4.15692      4.19325        -0.011043      0.005687      0.019749
O	      4.27720      4.02382      6.24303        -0.020556      0.039511      0.016369
O	      6.18930     12.50903     16.63578        -0.021493     -0.026593     -0.008367
O	      8.31679     12.48200     18.71994         0.056268     -0.030645     -0.033942
O	      4.15422      6.23928      8.30022         0.012080      0.006969     -0.040295
O	      6.26708      6.22474     10.39219         0.014167     -0.000758     -0.003273
O	      8.28364     14.59197     20.80519        -0.003804     -0.005255      0.030987
O	      4.19821      8.31204     10.37447        -0.042486      0.036536      0.008127
O	      6.25193      8.25697     12.47060         0.001970     -0.003118     -0.002943
