# total energy = -186.22329744 eV
 
CRYSTAL
PRIMVEC
-0.013538 12.670454 12.679045 
4.122759 10.590384 14.756139 
4.129445 6.332956 6.337412 
PRIMCOORD
24 1
Li	     -0.00541     12.60411     12.61382         0.007520     -0.007398      0.003818
Li	      0.05115      2.04165      2.06081        -0.009492      0.008909      0.009042
Li	      2.04119     16.98226     19.04641         0.009765     -0.004060     -0.003803
Li	      8.19125     25.36263     29.51847         0.008822      0.015465      0.015138
Li	      6.20239     16.94748     19.07519        -0.001603     -0.008324     -0.002161
Ti	      6.18817     19.00886     21.12179         0.001906     -0.035390     -0.035536
Ti	      6.20793     21.07019     23.31193         0.040072     -0.072669     -0.012703
Ti	      8.17256     21.15561     25.28979        -0.101361      0.010927     -0.007859
Ti	      4.12797     12.63173     12.65321        -0.032244     -0.013623     -0.039637
Ti	      2.05126      6.36391      8.42082         0.016223     -0.038855     -0.030795
Ti	      2.03626      8.54770     10.48688        -0.043719     -0.005106     -0.068313
Ti	      0.05583     10.53999     10.59381         0.113203      0.025690      0.060383
O	      2.05763     14.77845     14.79014        -0.011045      0.016023      0.011277
O	      4.12326     14.74087     16.82437        -0.001542      0.006123      0.013882
O	      2.06158      4.17133      4.17485        -0.003797      0.001875     -0.012092
O	      4.12570     16.89946     19.01241         0.003165     -0.042312      0.052713
O	      6.19447     16.94140     21.10775        -0.048737      0.017928      0.021108
O	      4.11534     18.98552     21.12778         0.004456     -0.020812     -0.002971
O	      2.05705      8.42292      8.42932         0.004916      0.055551      0.054651
O	      4.11601     21.11471     23.22106         0.000720     -0.003458     -0.010803
O	      2.05614     10.66954     10.67869        -0.003194      0.012071      0.004362
O	      4.13215     10.58135     12.63716        -0.001596      0.065286     -0.014850
O	      6.18067     23.31428     27.48505         0.041866      0.000085      0.012085
O	      4.12200     12.68812     14.74429         0.005699      0.016073     -0.016937
