# total energy = -186.11208368 eV
 
CRYSTAL
PRIMVEC
0.003914 6.270083 6.265941 
8.263341 2.051003 10.487534 
6.207139 2.092155 4.179146 
PRIMCOORD
24 1
Li	      6.32310      8.19636     10.61202         0.022215      0.018687     -0.017572
Li	      8.26891      8.21796     12.41581        -0.006499     -0.008352     -0.005187
Li	     12.40423      8.33392     16.74431         0.000993     -0.000707      0.000350
Li	      2.06708      4.30465      6.40833         0.005285      0.008458      0.001729
Li	      4.01711      4.32599      8.21222        -0.019734     -0.021813      0.017964
Ti	     10.27971      8.42418     14.71467        -0.047271     -0.066514      0.037988
Ti	      8.31704      4.21866     12.64747         0.043700      0.040290     -0.055134
Ti	      2.07171      2.07911      4.18964        -0.005722      0.011654     -0.003422
Ti	     10.28118      4.08775     10.39617        -0.039526     -0.039884      0.056891
Ti	     12.39754      4.14750     12.58219         0.009454     -0.010287      0.005159
Ti	      8.32234      6.15124     14.59331         0.056882      0.057804     -0.033650
Ti	      6.19792      4.15285     10.46638        -0.014302      0.010223     -0.005741
O	     10.35006      4.12558     12.56403         0.026604     -0.022277      0.031023
O	      4.26247      2.11571      4.16747         0.001443      0.017273      0.013089
O	      6.13832      2.11992      6.33161        -0.010796     -0.004270      0.037128
O	      8.24783      8.32662     14.63042        -0.039537      0.027831     -0.018671
O	     10.35403      6.24770     14.67647         0.037605     -0.035453      0.019033
O	      4.19755      4.13422      6.22809         0.013965      0.007282     -0.040367
O	      6.08580      4.13564      8.39103        -0.008578     -0.009875     -0.008997
O	      8.24799      4.18169     10.48033        -0.031787      0.024281     -0.029968
O	     10.33479      8.34679     16.73115        -0.013322      0.086341     -0.073478
O	      4.19896      6.30490      8.40160         0.010142      0.036642     -0.009782
O	      6.14101      6.21608     10.42032        -0.005559     -0.040692      0.005337
O	      8.26744      6.22941     12.57726         0.014347     -0.086642      0.076278
