# total energy = -186.23120265 eV
 
CRYSTAL
PRIMVEC
0.022241 4.198615 4.168495 
6.313563 0.038986 6.247384 
8.414773 4.217678 4.194314 
PRIMCOORD
24 1
Li	      6.28471      4.23362     10.34025         0.001001      0.006381     -0.002775
Li	      6.31638      2.11440      4.27557        -0.003530     -0.009719      0.010157
Li	      8.31731      4.33575      8.46616         0.001905      0.002732     -0.013525
Li	      4.25246      4.12587      4.19870        -0.002235     -0.001708     -0.007342
Li	      4.27805      2.07700      6.13322         0.007728      0.007320      0.010384
Ti	      8.40738      2.08835      6.31943        -0.033641     -0.011765      0.071115
Ti	      2.09042      0.14507      2.08605         0.022976      0.010481     -0.012339
Ti	     10.55297      6.37172     12.48716        -0.069850     -0.000541      0.023062
Ti	     12.61208      4.19564      8.42084         0.034492     -0.013402      0.054660
Ti	      8.50469      6.25529      6.29993         0.013747     -0.005234     -0.020273
Ti	      2.11861      2.06544      4.09571         0.017845     -0.018781     -0.070312
Ti	      6.29876      4.26996      6.20147        -0.023507      0.001607     -0.050545
O	      8.45617      2.34307      8.33096        -0.020773     -0.004843     -0.004975
O	     10.49185      4.23662      8.40275         0.023078      0.022368     -0.003084
O	      4.22467      2.05401      4.13173        -0.050675     -0.027402     -0.052610
O	      6.30702      4.20716      4.18592         0.015930      0.012001      0.022404
O	      6.33699      2.17301      6.28945         0.054382      0.031722      0.048454
O	      8.41079      4.19120      6.25741        -0.002773     -0.011028     -0.009501
O	      2.11638      4.19498      4.20107        -0.001272      0.010643      0.044756
O	     10.54533      6.37331     10.40083        -0.018933      0.003691     -0.013295
O	      4.21198      4.21505      6.25469         0.026431      0.018923     -0.004696
O	     12.67112      6.34555     12.51023        -0.004766     -0.001794      0.013319
O	      6.29462      4.16253      8.28928        -0.021102     -0.016085     -0.024505
O	      8.45453      6.31163      8.38574         0.033538     -0.005568     -0.008536
