# total energy = -185.67261467 eV
 
CRYSTAL
PRIMVEC
-0.000716 2.108298 2.108264 
6.170846 0.012435 6.310133 
10.355996 8.488141 2.049641 
PRIMCOORD
24 1
Li	     12.29791      6.40892      6.23963         0.011931      0.009664     -0.010689
Li	      4.34136      4.22892      4.20311        -0.027117      0.005395     -0.008213
Li	      6.14600      4.18453      2.13755        -0.029374     -0.015852      0.018871
Li	      6.09329      2.25962      4.06210        -0.009471     -0.003271      0.005935
Li	     10.41922      8.40992      6.34452         0.000998      0.019848     -0.016974
Ti	      0.04530      2.11117      2.10859        -0.019782     -0.018275      0.011004
Ti	      8.17708      2.07308      6.35722        -0.009915     -0.047978      0.044969
Ti	     10.45484      6.34999      8.40371         0.144715     -0.025949      0.030473
Ti	      1.98964      0.06973      2.03718        -0.065913      0.074324     -0.068722
Ti	      8.20760      6.36384      2.06949         0.004660      0.019573     -0.025126
Ti	     14.51702     10.56393      8.40932         0.143629     -0.024397      0.017988
Ti	      8.17109      4.28205      4.14894        -0.284773      0.009614     -0.010835
O	      2.22513      2.12630      2.08791         0.014291     -0.001919      0.006927
O	      4.09774      4.28423      2.03765        -0.003316      0.060866     -0.053153
O	     12.39157      6.38140      8.37369        -0.038081     -0.004343      0.003360
O	     14.37632      8.47030      8.39557        -0.036028      0.011795     -0.011593
O	      4.07449      2.04294      4.28326        -0.043403     -0.029942      0.023403
O	      6.30069      4.24684      4.18289         0.266979      0.002346     -0.001536
O	      8.28005      6.36716      4.17265        -0.006103      0.007235     -0.001520
O	     10.30031      8.45910      4.18969         0.005029     -0.049036      0.050042
O	      6.16540      2.15993      6.27344        -0.046587      0.023885     -0.018995
O	      8.28190      4.23543      6.30366        -0.014134      0.001373     -0.004056
O	     10.27189      6.31477      6.33202         0.002099     -0.013151      0.009425
O	     12.44641      8.57147      6.18354         0.039667     -0.011804      0.009014
