# total energy = -186.22284565 eV
 
CRYSTAL
PRIMVEC
-0.040395 4.121575 4.187678 
12.482515 2.062746 14.532599 
8.356057 2.062296 6.198627 
PRIMCOORD
24 1
Li	      8.37679      4.03675      8.34326        -0.024197     -0.006418      0.001831
Li	      2.04039      2.03865      4.09943        -0.004569     -0.017131      0.005796
Li	     12.50295      4.12404     12.44082         0.001346      0.002985     -0.007076
Li	     14.61427      4.14684     14.57992         0.000654      0.016901     -0.000412
Li	      8.27398      2.14954     10.33822         0.028191      0.006452     -0.000577
Ti	     12.41790      2.12082     14.47974        -0.005389      0.023727     -0.023845
Ti	      2.05195      4.15165      6.24333         0.014613     -0.044394     -0.009730
Ti	      4.12917      4.12255      8.33460        -0.011942      0.010522     -0.002085
Ti	     14.55746      6.15706     16.62344         0.003312      0.035537      0.013125
Ti	     16.71645      6.12847     18.73294         0.014860     -0.045036      0.029056
Ti	     18.74092      6.10622     20.68280        -0.019936     -0.026370     -0.006472
Ti	     10.39396      2.14112     12.53157        -0.004212      0.048016     -0.013668
O	     14.56681      4.12430     16.60603        -0.001484      0.001352      0.000963
O	      4.17938      2.02819      4.15678         0.049218      0.004816     -0.002414
O	      6.16970      1.99784      6.30757         0.031993     -0.033317     -0.009611
O	      8.37845      2.02488      8.23061         0.053672     -0.003363     -0.017697
O	     10.36675      6.17412     14.55149         0.019479      0.015650     -0.006128
O	     12.44954      6.16387     16.60289         0.027582      0.002945      0.005894
O	     14.54744      6.18479     18.69982        -0.002911      0.002730     -0.000713
O	     16.64321      6.20700     20.79731        -0.015046     -0.007503     -0.007835
O	      6.24618      4.13271      8.31615        -0.017460     -0.017981      0.008913
O	      8.27301      4.16074     10.45082        -0.060482      0.008377      0.015740
O	     10.48190      4.18849     12.37281        -0.041846      0.026051      0.020425
O	     12.47191      4.15834     14.52281        -0.035446     -0.004548      0.006521
