# total energy = -186.28219328 eV
 
CRYSTAL
PRIMVEC
-0.026099 4.190930 4.191617 
12.364990 -0.028964 12.524449 
4.123467 2.084020 2.080770 
PRIMCOORD
24 1
Li	     12.33714      4.21755     16.65736        -0.007293     -0.015125      0.021570
Li	      8.21660      6.24898     10.45474        -0.006178     -0.003799      0.004915
Li	     10.28026      6.21923     12.57518        -0.001086      0.013526     -0.000617
Li	     10.28047      4.16824     14.62657        -0.002675     -0.003933      0.005009
Li	     14.41271      4.14083     14.63334         0.001236     -0.005123      0.001835
Ti	      6.15671      6.22516      8.39867         0.003186     -0.026617      0.001634
Ti	      8.24043     -0.01298      8.35021         0.002230      0.015556     -0.006352
Ti	     12.35633      2.20947     14.47772         0.003566     -0.014946      0.015470
Ti	      6.18175      4.13773      6.32112         0.009597      0.032769     -0.013312
Ti	      8.22211      4.12706      8.38519        -0.004492     -0.017328      0.012271
Ti	      6.17138      2.13452      8.30790        -0.002027      0.027725     -0.006315
Ti	     12.35410      4.14499     12.54121        -0.005158      0.042723     -0.051998
O	      1.98301      2.04994      2.12424        -0.004823     -0.023584      0.014073
O	      4.10635      2.13449      4.17589        -0.016332     -0.024550     -0.005754
O	      6.25091      2.02829      6.25312        -0.030834      0.021965     -0.015450
O	      8.28758      2.05683      8.32507        -0.012608     -0.023829      0.009823
O	     10.27983      2.09680     10.45163        -0.011435      0.000718      0.002044
O	     12.35938      2.05383     12.48973         0.004477      0.054341      0.028692
O	      2.11599      4.15984      4.22600         0.002594     -0.016187      0.011997
O	      4.11811      4.17295      6.22219         0.035810     -0.000020      0.019643
O	      6.07881      4.18653      8.42675         0.010678      0.004306     -0.022262
O	      8.17507      4.19459     10.46579         0.013078     -0.010284      0.018823
O	     10.30273      4.15121     12.50770         0.021728     -0.000834      0.002614
O	     12.34769      4.19951     14.63254        -0.003239     -0.027470     -0.048352
