# total energy = -90.73573586 eV
 
CRYSTAL
PRIMVEC
0.000021 2.105661 2.105654 
4.018453 -2.117087 2.117145 
4.078777 6.411304 -6.411285 
PRIMCOORD
16 1
Li	      2.04482      2.16906     -0.06237         0.006386     -0.010526      0.010276
Li	      3.92636      1.98046     -1.97938        -0.006991     -0.008554      0.007836
Li	      2.05221      0.09928      2.00740        -0.012659      0.014151     -0.014394
Li	      6.01102      2.07876      0.02824         0.016977      0.012180     -0.013738
Mn	      0.06613      0.06650     -0.06545         0.055849     -0.019138      0.019290
Mn	      4.09418      4.27369     -4.27236        -0.046272      0.010304     -0.010813
Ni	      6.06717      4.24220     -2.13515        -0.046373     -0.024928      0.025237
Ni	      4.02489      0.08791     -0.08686        -0.074950     -0.079900      0.080648
O	      6.10279      4.21696     -4.21566         0.004969      0.090309     -0.090586
O	      6.22537      2.21915     -2.21770         0.057158     -0.087912      0.088220
O	      4.12330      6.37668     -4.26962         0.096127     -0.000918      0.000172
O	      1.94277      2.14242     -2.14132         0.126074     -0.007897      0.007747
O	      4.06624      4.43357     -2.32661        -0.106955     -0.003005      0.005028
O	      1.92455     -0.00500      0.00602        -0.081352      0.001574      0.000119
O	      4.00919      2.06046      0.04629         0.002485      0.116723     -0.117174
O	      3.99360     -0.05823      2.16490         0.009527     -0.002463      0.002131
