# total energy = -185.65486093 eV
 
CRYSTAL
PRIMVEC
0.000040 2.078020 2.077842 
6.292144 -0.097456 6.331068 
12.503797 8.298742 4.169228 
PRIMCOORD
24 1
Li	     12.46654      8.24578      4.22209        -0.003339     -0.007641      0.008531
Li	     12.37695      6.25153      6.21687        -0.010592     -0.010227      0.007995
Li	      4.28516      4.09767      4.21267         0.003393      0.010612     -0.008644
Li	      6.19259      2.07640      4.15679        -0.001769      0.010427     -0.010669
Li	     10.61782      8.26448      6.28178         0.014892     -0.006489      0.005894
Ti	      8.39227      4.10336      8.36386        -0.012252      0.043446     -0.055600
Ti	     10.32738      4.04227      6.34598        -0.051242      0.058987     -0.044095
Ti	     14.48628      8.29509      6.25063        -0.324981      0.020609     -0.022976
Ti	     12.65628      6.16684     10.45488         0.046940     -0.021296      0.009674
Ti	     14.51942      6.09247      8.45198        -0.003487     -0.042721      0.058947
Ti	      4.38949      1.99373      6.31727         0.270841     -0.038765      0.039597
Ti	      8.33466      4.13784      4.17282         0.028075     -0.006941      0.006685
O	      2.11457      2.06982      2.08581        -0.014552     -0.031766      0.032405
O	     10.51509      4.02879      8.43709         0.064012      0.027155     -0.019354
O	     12.43123      6.17747      8.36690        -0.027961     -0.045072      0.033955
O	     14.65633      8.24213      8.38078         0.031749      0.009696     -0.015765
O	      4.11392      1.95791      4.27487        -0.027888     -0.035279      0.037949
O	      6.27270      4.17752      4.13322        -0.014535      0.028109     -0.020682
O	      8.52814      6.20599      4.18309         0.002310     -0.006741      0.009903
O	     16.66084      8.26937     10.43169         0.002904      0.073067     -0.069977
O	      6.26365      2.00578      6.30539        -0.233056      0.000526      0.002235
O	      8.19338      4.12379      6.26532        -0.059443      0.003695     -0.012870
O	     10.39795      6.12704      6.33920        -0.001820     -0.033127      0.027011
O	     12.63870      8.27396      6.27174         0.321802     -0.000266     -0.000151
