# total energy = -185.96090290 eV
 
CRYSTAL
PRIMVEC
0.000158 2.095776 2.095484 
4.183350 -0.071660 4.262962 
14.359330 12.475072 2.196129 
PRIMCOORD
24 1
Li	     14.23141     12.37488      2.29618        -0.004748      0.007936     -0.006330
Li	      8.40352      6.30879      6.26759        -0.000055     -0.009914      0.008855
Li	     10.33892      8.28436      6.38857        -0.000970      0.000567     -0.002748
Li	     12.23695      8.26142      4.31563        -0.008036     -0.011114      0.010415
Li	     12.40527     12.49473      4.27235         0.022595      0.003177     -0.003028
Ti	      6.27792      4.06664      6.41150         0.050344     -0.025473      0.032495
Ti	     14.30725     10.29870      4.37272        -0.076408     -0.017739      0.024682
Ti	      2.16826      2.10890      4.17922         0.077435      0.050683     -0.052946
Ti	      4.09369      2.05478      2.13779        -0.017558      0.016470     -0.013119
Ti	      6.11012      4.09257      2.19649        -0.082155     -0.010103      0.007508
Ti	      8.25927      8.35223      4.22400        -0.006502      0.005599     -0.001673
Ti	     10.32481     10.42881      4.24408         0.044830      0.011628     -0.016659
O	      1.92377      2.07745      2.11441        -0.015827     -0.005090      0.001630
O	      4.10579      4.20050      2.08766         0.007080      0.007477     -0.006496
O	      6.19465      6.18585      2.19870         0.041464     -0.005884      0.001462
O	     12.41037      8.24052      6.43154        -0.007824     -0.014994      0.014733
O	     14.45591     10.34038      6.42745        -0.002981      0.018955     -0.020278
O	     16.42020     12.49907      6.36469        -0.012249     -0.014250      0.018812
O	      4.20520      2.01614      4.27246        -0.004411      0.001833     -0.006761
O	      6.28078      4.08665      4.29712         0.005650     -0.000692      0.001588
O	      8.19616      6.27016      4.21040        -0.021199      0.001442      0.003952
O	     10.28049      8.33064      4.24629        -0.034933     -0.010154      0.012832
O	     12.35956     10.37781      4.29447         0.061908      0.003837     -0.007025
O	     14.44027     12.38003      4.38760        -0.015448     -0.004194     -0.001904
