# total energy = -203.67991380 eV
 
CRYSTAL
PRIMVEC
0.000199 2.101450 2.101513 
26.796007 -0.051974 27.374257 
12.382397 2.100898 10.509316 
PRIMCOORD
26 1
Li	     26.68690      0.05874     27.25895        -0.010959     -0.003229      0.004749
Li	      4.31623      2.09243      6.31179        -0.000284      0.013241     -0.014749
Li	      6.08809      0.11292      6.18976        -0.025155     -0.001276     -0.000639
Li	     32.87348      1.94726     31.67571         0.003240     -0.000723      0.001658
Li	     37.18039      4.07602     37.95703         0.005453     -0.022529      0.017233
Ti	     14.39634      2.05438     12.65387        -0.003722     -0.001815     -0.003511
Ti	     20.54045      2.06412     18.95089        -0.089922      0.000135     -0.006541
Ti	     22.71599      4.13163     23.18707         0.053471      0.000937     -0.001855
Ti	     12.45208      2.07362     14.73701         0.016222     -0.015884      0.013624
Ti	     14.36658      0.03415     14.67367        -0.051743      0.062070     -0.065175
Ti	     16.56942      2.03880     18.97488         0.140153     -0.006276      0.002051
Ti	     18.56797      2.11298     20.99802         0.019825      0.016102     -0.008802
Ti	     34.98799      2.02341     33.70333        -0.244449      0.000941     -0.002159
O	     28.76679      2.02439     29.49727        -0.023591      0.016454     -0.015203
O	     30.88557      2.12578     31.49524        -0.034515      0.018758     -0.011776
O	     33.11025      2.04509     33.68044         0.239625     -0.010961      0.015106
O	      8.28644      2.08632      8.41931         0.002313     -0.008372      0.003753
O	     10.27011      2.01627     10.59148        -0.041405     -0.016634      0.020330
O	     12.35044      2.11033     12.59847        -0.020530      0.007064     -0.005737
O	     14.62146      2.09741     14.71178        -0.000981      0.013315     -0.008569
O	     16.44133      2.01255     16.89913        -0.040837     -0.011918      0.009996
O	     18.55246      2.14784     18.86338         0.029777     -0.020147      0.021392
O	     20.67025      2.05459     21.06148         0.049968     -0.010168      0.010008
O	     22.65957      2.02739     23.18982         0.001616     -0.007132      0.009519
O	     24.70145      2.04031     25.27920        -0.005106     -0.016397      0.018455
O	     26.83402      2.14253     27.27789         0.031539      0.004442     -0.003157
