# total energy = -203.53619987 eV
 
CRYSTAL
PRIMVEC
-0.000195 2.095695 2.095370 
27.100056 -0.248853 27.486861 
6.243780 2.066228 4.219716 
PRIMCOORD
26 1
Li	     10.27627      1.96772      8.50837        -0.010232     -0.003385      0.002686
Li	      8.45676      2.08207     10.48986        -0.001440      0.000083     -0.000734
Li	     22.83618      1.77851     21.26667        -0.006414     -0.001945      0.002688
Li	     20.99129      1.89533     23.24584         0.050154      0.001919     -0.001271
Li	     22.79743     -0.09323     23.13862        -0.013030     -0.003913      0.002044
Ti	      6.32838      4.11087      6.36432         0.028777     -0.022431      0.023012
Ti	      1.99887      0.03288      2.05998        -0.008507     -0.037687      0.033467
Ti	      6.28028      2.08711      8.38842        -0.009904      0.031993     -0.035067
Ti	     16.63215      1.90674     14.85646        -0.026087     -0.008753      0.011697
Ti	     12.46532     -0.09084     12.65955        -0.080506      0.011665     -0.006040
Ti	     14.75258      1.98975     16.86478         0.154797     -0.016779      0.016741
Ti	     24.94256      1.83906     23.30147        -0.221570     -0.016857      0.022003
Ti	     31.20497      1.84306     29.58402        -0.065474      0.062386     -0.057791
O	     29.21749      1.91941     29.50708         0.028608     -0.015609      0.009537
O	      4.16779      2.10631      4.17773         0.029135     -0.001630      0.000491
O	      6.07274      2.03606      6.34424         0.018472     -0.026984      0.032655
O	      8.31730      2.08842      8.38630        -0.081555      0.016516     -0.012541
O	     10.45562      1.93799     10.63307         0.052197     -0.002580      0.002087
O	     12.56713      2.02898     12.63603         0.025121      0.035594     -0.040864
O	     14.53662      1.99649     14.76356        -0.038555     -0.014604      0.010847
O	     16.73578      1.86553     16.99203         0.008216      0.033253     -0.032679
O	     18.83088      1.92191     19.02942         0.010307     -0.022792      0.021602
O	     20.77867      1.97149     21.07453        -0.030807      0.014690     -0.015366
O	     23.07102      1.88771     23.25280         0.265675      0.000942      0.001774
O	     25.07505      1.88098     25.35506        -0.007209     -0.003695      0.000251
O	     27.03267      1.80329     27.52814        -0.070169     -0.009397      0.008772
