# total energy = -204.04041639 eV
 
CRYSTAL
PRIMVEC
-0.077727 27.000822 27.458039 
2.078464 2.075972 4.219390 
2.078664 6.232200 4.217116 
PRIMCOORD
26 1
Li	      3.96395      8.30646      8.51803        -0.000145      0.000742     -0.018026
Li	     -0.00812      4.15345      4.22497         0.008931      0.001957     -0.011658
Li	      2.16822      8.30696     10.34508        -0.005508      0.001280     -0.023476
Li	      1.94025     22.84666     21.24554         0.008950     -0.002704      0.031686
Li	      2.08343     20.76765     23.11010        -0.009275     -0.002104      0.030762
Ti	      0.05240      2.07686      2.08676         0.081188      0.000421      0.026334
Ti	      2.00620     10.38492     12.61825         0.037947     -0.013514      0.076396
Ti	      2.07094     16.62170     14.83325        -0.031590     -0.022393     -0.038489
Ti	      1.98732     14.53240     16.73287         0.041517      0.019450      0.013980
Ti	      0.05500     14.53596     14.79667        -0.030990      0.012912     -0.080493
Ti	      4.03030     29.07792     29.52814        -0.070491     -0.007595      0.005720
Ti	      2.03359     29.07752     27.65091         0.010120      0.004507      0.021615
Ti	     -0.05883     24.92070     25.35491         0.001464      0.005513     -0.013564
O	      2.00495     29.07551     29.79307         0.003564     -0.003967     -0.060641
O	      2.04215     31.15342     31.68610         0.028104      0.000940      0.041127
O	      2.09562      6.23029      6.29040         0.032309      0.000722      0.008945
O	      1.96831      8.30827      8.29281        -0.044466      0.001381     -0.082348
O	      2.09315     10.38517     10.57168        -0.032497      0.008336      0.024506
O	      2.03168     12.46306     12.70432         0.013912      0.000710      0.058206
O	      2.21503     14.54200     14.68172        -0.044326      0.003977      0.033650
O	      1.90602     16.61193     16.92553        -0.012374     -0.002597     -0.044790
O	      2.03235     18.69095     18.90185        -0.000918      0.000528     -0.026957
O	      1.98636     20.76858     21.05495         0.006751     -0.008631     -0.056231
O	      2.04996     22.84497     23.31394         0.019891     -0.002592      0.088612
O	      2.04147     24.92265     25.43785        -0.033573      0.002162      0.002594
O	      2.06635     26.99920     27.47781         0.021505      0.000562     -0.007460
