# total energy = -221.51978519 eV
 
CRYSTAL
PRIMVEC
-0.048845 14.687281 14.639437 
4.188834 4.188936 8.358978 
4.171916 10.481023 10.452790 
PRIMCOORD
28 1
Li	      4.17111      6.49544     10.56488         0.014848     -0.000979      0.000304
Li	      8.31031     18.75566     22.87647         0.005268      0.016534     -0.021266
Li	      6.32910     18.79213     21.00347        -0.004445     -0.020156      0.016550
Li	      4.18681     20.86258     20.87956        -0.008955      0.010184      0.020813
Li	      1.97743     12.66661     14.53521         0.016123     -0.004280     -0.002410
Ti	      4.10337     10.51432     10.49376        -0.015776     -0.027933     -0.028764
Ti	      2.08396     14.68749     16.69203        -0.017761     -0.048957     -0.001721
Ti	      2.17507     16.85941     18.79354        -0.004101      0.017885     -0.060153
Ti	      6.23069     14.71482     16.82183         0.017528      0.013696      0.068361
Ti	      4.09070     16.79895     16.80701         0.007787      0.019261      0.030518
Ti	      2.19692      6.19220      8.37238        -0.023175      0.007234      0.007346
Ti	      4.06532     18.75284     18.80856         0.011267      0.034764      0.010498
Ti	      2.12615     10.53322     12.46700        -0.008577     -0.022014     -0.023892
Ti	      4.09034     16.80351     20.83926         0.013165     -0.028675     -0.023063
O	      6.20171     20.99872     25.05006         0.017804      0.029851      0.015892
O	      4.26283     16.59977     18.80730        -0.022002      0.034050     -0.009924
O	      6.17852     23.09655     27.19373        -0.013328     -0.007928     -0.040607
O	      4.10479     18.89289     20.92740        -0.006139     -0.020110      0.007102
O	      6.31023     10.52460     14.61286         0.002506      0.001229      0.010884
O	      4.19620     20.99390     23.00544        -0.008633     -0.005352      0.013955
O	      2.02153      8.37393      8.37929        -0.012353      0.009291      0.026798
O	      4.15563      8.50406     10.35520        -0.000162      0.034652     -0.022203
O	      1.97312     10.37023     10.46338         0.038579      0.028718     -0.001893
O	      4.19963     10.49377     12.57983        -0.005858      0.005696     -0.011336
O	      6.23638     16.78065     20.86949        -0.020823     -0.029863     -0.034036
O	      4.22968     12.55998     14.65991         0.023574     -0.031853      0.021065
O	      2.04878     14.72601     14.69553         0.004913     -0.019674      0.030298
O	      4.13915     14.65510     16.71776        -0.001272      0.004730      0.000884
