# total energy = -89.73557538 eV
 
CRYSTAL
PRIMVEC
-0.000596 2.084544 2.081613 
4.233016 -2.173961 2.169647 
4.166661 6.452300 -6.443626 
PRIMCOORD
16 1
Li	      2.24004      2.38482     -0.30052         0.013808      0.029368     -0.030649
Li	      4.28953      4.23500     -0.07751        -0.022867      0.009349     -0.009869
Li	      6.21954      2.07749     -0.00429         0.026612     -0.006692      0.013680
Li	      4.04073      6.09970     -1.94652        -0.012664     -0.022026      0.033215
Mn	      0.06060      0.05502     -0.05163         0.017016      0.000550     -0.005600
Mn	      6.22342      6.35697     -4.26377        -0.022846     -0.002129      0.001201
Ni	      6.23733      4.15851     -2.08518         0.093778      0.075589     -0.070998
Ni	      4.27636      2.15490      2.00931        -0.092324     -0.077198      0.072051
O	      6.21455      4.37251     -4.35979        -0.018383      0.026299     -0.032133
O	      6.38097      4.31634     -0.16165         0.010578     -0.118606      0.121322
O	      4.07756      6.62655     -4.53179         0.042932      0.028129     -0.030659
O	      1.93008      4.30292     -0.13779         0.180998     -0.006373      0.007194
O	      4.35008      4.18337     -2.10973        -0.176765      0.005415     -0.005050
O	      2.20671     -0.21576      0.21525        -0.050235     -0.027381      0.023346
O	      4.13248      1.99557      0.08434        -0.013983      0.122750     -0.119772
O	      4.30087     -0.13280      2.21491         0.024344     -0.037044      0.032721
