# total energy = -221.58044902 eV
 
CRYSTAL
PRIMVEC
0.034956 14.688986 14.699131 
4.185801 8.421756 12.581060 
4.193044 4.224173 4.182350 
PRIMCOORD
28 1
Li	      0.25168     14.59819     14.66963         0.000751     -0.002044      0.007501
Li	      2.14988     14.74174     16.63444        -0.024937      0.007932     -0.001219
Li	      6.33351     10.49572     12.65290         0.005461     -0.020813     -0.001497
Li	      4.13036     16.81669     16.85070         0.012886     -0.000964     -0.018913
Li	      6.18360     16.89167     18.96084         0.011377      0.013228     -0.001567
Ti	      8.27178     14.71698     18.76084        -0.003425      0.020107     -0.029134
Ti	      2.05002     16.93849     18.86294        -0.002484      0.049935     -0.013883
Ti	      0.08283      4.14302      4.15915         0.002065     -0.026062     -0.101376
Ti	      2.14413     18.87290     20.95741        -0.021181     -0.030151     -0.037280
Ti	      4.19857     10.52750     10.53298         0.049608      0.010856      0.014046
Ti	      0.05460      8.44419      8.47563        -0.008048      0.035878      0.062293
Ti	      6.20885     12.65606     14.73375        -0.005989      0.006983      0.042444
Ti	      4.28025     14.62816     14.71687         0.004122     -0.028215      0.016713
Ti	      2.12214     10.49651     12.57323        -0.025473     -0.038817      0.031833
O	      6.19975     10.58382     14.70921         0.004690     -0.020571      0.001668
O	      4.15169     16.79430     18.95406         0.013038     -0.025756     -0.011587
O	      6.46204     12.69041     16.78884         0.016121     -0.004047      0.006514
O	      4.26982     18.93948     20.98700         0.006470      0.026217      0.000918
O	      6.23000     14.76033     18.88431         0.003693      0.028786      0.030882
O	      4.19439     20.95448     23.04711        -0.014666     -0.013370      0.000675
O	      2.10491      8.40627      8.47074        -0.007198      0.007085     -0.007911
O	      4.17385      8.42160     10.45424        -0.004695     -0.009577     -0.004381
O	      6.33041     19.01070     23.00175         0.035128      0.033984      0.008260
O	      4.25131     10.49987     12.55209         0.004554     -0.015715     -0.015172
O	      2.11633     12.55042     12.56561         0.014312     -0.034612      0.027957
O	      4.04103     12.55359     14.69583        -0.037687     -0.020452      0.013084
O	      6.41957     23.10512     27.15229        -0.009529      0.013489     -0.027856
O	      4.18299     14.70844     16.82067        -0.018966      0.036689      0.006987
