# total energy = -221.50531255 eV
 
CRYSTAL
PRIMVEC
-0.076450 14.655994 14.678692 
4.171559 2.109823 6.252616 
4.161546 10.480066 10.450888 
PRIMCOORD
28 1
Li	      4.05102     16.72092     20.83399         0.002231      0.000995      0.004939
Li	      6.35674     12.55679     14.77078        -0.010163     -0.004348     -0.010418
Li	      6.20824     14.60464     16.67626         0.001985     -0.014787     -0.008594
Li	      4.17521     14.82501     18.92243         0.021038     -0.020787      0.010714
Li	      6.07721     23.01187     25.12117        -0.023709      0.013117      0.002597
Ti	      2.09154     14.75267     16.69528        -0.029578      0.077719     -0.044212
Ti	      4.11606      4.35332      8.32702         0.023209     -0.062202     -0.022930
Ti	      4.17704      6.23080     10.33113         0.007624     -0.030363     -0.008052
Ti	      4.00490     16.69746     16.68070        -0.003883     -0.021798     -0.007122
Ti	      2.17819      6.23415      8.37532         0.034439     -0.000427      0.065394
Ti	      8.26971     20.99399     25.10792        -0.040641      0.049528      0.059985
Ti	      6.25590     18.81947     21.06327        -0.005999      0.023567     -0.036338
Ti	      4.04013     20.94940     20.98060         0.012133      0.035527     -0.015749
Ti	      6.19929     20.91893     22.99195        -0.015109     -0.034376      0.021804
O	      1.94501     16.77135     16.96393         0.036848     -0.006923     -0.020048
O	      4.19397     16.83100     18.77427        -0.024728      0.025971     -0.006541
O	      6.19745     20.96133     25.09243         0.032383      0.013985      0.036039
O	      4.10166     18.84314     20.93226        -0.016205     -0.020384     -0.022544
O	      6.20075      8.43445     12.52924        -0.008140     -0.006981      0.003874
O	      4.15447     21.17451     22.99762         0.022704     -0.068663      0.015335
O	      2.03845      8.33934      8.36072        -0.014894      0.001207      0.001969
O	      4.14422      8.33466     10.44775        -0.022455      0.002373      0.020289
O	      1.99584     10.41509     10.47363        -0.009970      0.019572      0.022569
O	      4.15467     10.48227     12.52902         0.043706     -0.008152     -0.028128
O	      2.07693     12.53755     12.54241        -0.003250      0.028038      0.006502
O	      4.11005     12.55458     14.65857         0.013864     -0.026932     -0.047438
O	      2.03640     14.61038     14.64134        -0.019589     -0.005321     -0.001856
O	      4.16366     14.65674     16.68857        -0.003851      0.040845      0.007961
