# total energy = -221.53639523 eV
 
CRYSTAL
PRIMVEC
0.003626 4.186546 4.118363 
14.715376 2.069472 16.508790 
12.617376 4.178598 12.372900 
PRIMCOORD
28 1
Li	     14.75033      8.31186     18.54234         0.017623      0.011456      0.000270
Li	      6.28098      4.23109     10.31994        -0.021488     -0.011462      0.001364
Li	     10.52311      4.09120     14.34046         0.009713      0.011462      0.026658
Li	      4.20503      2.08794      6.18678         0.000795     -0.000484     -0.001913
Li	     25.21506      6.33318     26.91274        -0.002245     -0.007625     -0.024322
Ti	     14.77436      6.19013     20.58232         0.006246     -0.030799      0.008870
Ti	      4.20777      4.18177      8.24453         0.000709      0.002832      0.003209
Ti	     20.96973      8.42172     24.78909        -0.001975      0.019552     -0.000766
Ti	     12.59033      4.23527     16.47253        -0.060191      0.066474     -0.018728
Ti	     12.64435      6.29779     14.58300        -0.017716     -0.040647     -0.013393
Ti	     14.61108      6.31038     16.44127        -0.007524      0.003881     -0.021365
Ti	      6.41642      2.04482      8.30472        -0.006784     -0.004041      0.010816
Ti	      8.38162      2.05820     10.16245         0.020458      0.029456      0.017387
Ti	     23.15278      6.19076     24.77950         0.059544     -0.071595      0.021519
O	     16.81586      4.17576     18.54132         0.006616      0.000571     -0.019418
O	     18.87802      4.16049     20.62733         0.003722      0.007664     -0.001786
O	      6.29641      2.09771      6.19928         0.011849     -0.001939      0.025561
O	      8.45368      6.27253     12.14602         0.017379     -0.008443     -0.010045
O	     10.51493      6.27098     14.43081         0.000419      0.001132      0.004239
O	     12.57684      6.26927     16.71831        -0.008162      0.019689     -0.000668
O	     14.73081      6.25741     18.54552        -0.014338      0.013487     -0.021981
O	     16.86363      6.26447     20.62575        -0.002427     -0.008193      0.006533
O	     18.92593      6.24938     22.71247        -0.005999     -0.003036      0.017616
O	     21.03425      6.24708     24.75249        -0.003876     -0.010179      0.029154
O	      8.38078      4.13147     10.33694         0.002186      0.012119      0.011219
O	     10.51317      4.17819     12.37180        -0.001535     -0.000876      0.004256
O	     12.64507      4.22408     14.40816         0.002234     -0.009942     -0.019628
O	     14.70966      4.17783     16.50180        -0.005232      0.009483     -0.034658
