# total energy = -221.40450671 eV
 
CRYSTAL
PRIMVEC
-0.101355 14.574442 14.611236 
2.064883 4.136784 6.274842 
4.131128 10.423300 6.220029 
PRIMCOORD
28 1
Li	      2.11228     16.70266     14.73248         0.012643      0.042207     -0.003973
Li	      2.05055     18.62991     16.71294        -0.004457     -0.003087     -0.021058
Li	      1.99626      8.27885     10.30298        -0.007429     -0.006595      0.017505
Li	      3.99056     18.72553     14.77744         0.023663     -0.031701     -0.004133
Li	      4.06902     16.77125     16.58632        -0.025304      0.012650     -0.017475
Ti	      4.08193     10.40712      6.28592        -0.068247     -0.007965      0.075894
Ti	      2.00212      6.21083      8.26761        -0.006853      0.005543      0.040127
Ti	      4.17876     10.46005     10.37815         0.070007      0.011891     -0.051973
Ti	      1.90108     10.45419     12.46981        -0.029252     -0.031496      0.042715
Ti	      4.12207     12.60649     12.58135        -0.016202     -0.008543      0.003314
Ti	      4.06048     14.46905     14.44565         0.009238      0.003915      0.015972
Ti	      4.12090     20.82092     16.83056        -0.030279     -0.022139     -0.038823
Ti	      4.04975     22.78293     18.68772        -0.010631     -0.026210     -0.022996
Ti	      2.09462     14.55914     12.52322         0.076786      0.052246     -0.059768
O	      1.90645     16.63199     16.68820        -0.008194      0.005428      0.016405
O	      4.05729     18.77807     16.76655         0.005900      0.042896      0.045216
O	      2.04991     18.71167     18.84301         0.001465     -0.004006      0.004886
O	      4.01452     20.72590     18.98135        -0.008231     -0.019734     -0.014609
O	      2.01833      6.29312      6.18819         0.003317      0.010743     -0.001449
O	      4.00077     22.92944     20.78733        -0.020423      0.023398     -0.019780
O	      2.02070      8.27882      8.32185         0.003417     -0.003525     -0.049017
O	      4.13698     10.33659      8.35681        -0.003743     -0.021072      0.030836
O	      2.04103     10.43114     10.38051         0.001594     -0.008006     -0.001421
O	      4.12447     12.53005     10.37851        -0.012433     -0.008925      0.012378
O	      2.01204     12.49062     12.48903        -0.002100     -0.007084     -0.003867
O	      4.14195     14.66897     12.31118         0.000340     -0.004440      0.013473
O	      1.98119     14.52551     14.66275        -0.011952     -0.005370     -0.001383
O	      4.12235     16.60948     14.54587         0.057358      0.008980     -0.006996
