# total energy = -221.31936056 eV
 
CRYSTAL
PRIMVEC
-0.040006 14.692178 14.620974 
4.224076 2.109296 6.243858 
4.227796 2.091088 2.084699 
PRIMCOORD
28 1
Li	      8.22225      4.29469      8.35971        -0.005617     -0.017146      0.013796
Li	      6.31863      4.19875      6.26202         0.001259      0.002992      0.008291
Li	      6.39688      6.12588      8.34329        -0.008674     -0.008683      0.005752
Li	      4.21911     10.58292     14.58368         0.007423     -0.018699     -0.012435
Li	      2.28514     10.46294     12.48876        -0.022150      0.000319     -0.012738
Ti	      6.24055     16.73908     18.80363         0.045819      0.017603      0.039147
Ti	      8.41561      6.32286     10.43095         0.047538      0.056978      0.002819
Ti	      4.22817      6.31112     10.42085         0.026148     -0.057392      0.006603
Ti	      4.15545      8.32818      8.33993        -0.040875      0.049409      0.000809
Ti	      2.27165      6.37486      8.34256        -0.071973      0.060235     -0.003303
Ti	      2.14758      8.40444     10.41861         0.061654      0.037213     -0.016796
Ti	      4.22948     12.67342     16.65473        -0.033218     -0.056853     -0.013321
Ti	      4.24271     14.69771     14.72672         0.001361     -0.034456     -0.098970
Ti	      6.12369     14.60650     16.60154         0.043538      0.069115      0.077405
O	      1.95330      1.98574      2.09931        -0.065910     -0.021042      0.010675
O	      4.22757      2.12463      4.19844         0.029378      0.019240      0.006652
O	      6.34862      6.34322     10.42598        -0.004651      0.006227      0.005610
O	      4.18592      4.20958      6.26499         0.002086      0.010593      0.002006
O	      2.08190      6.24554      6.26384        -0.018291     -0.015334     -0.000670
O	      4.40282      6.27223      8.33990        -0.019352     -0.029368      0.002730
O	      6.29501     10.60116     14.58329         0.018898     -0.035984     -0.007370
O	      4.32947      8.48314     10.41946         0.027837      0.010724     -0.012260
O	      6.28388     12.56994     16.64977        -0.064821      0.008472     -0.005663
O	      4.31485     10.47856     12.49899         0.003252     -0.029882     -0.001637
O	      2.12593     12.47176     12.44895        -0.041394     -0.057558      0.005459
O	      4.07086     12.59983     14.57590         0.031892     -0.013992     -0.031118
O	      2.11023     14.64151     14.64773         0.009086      0.021175      0.039274
O	      4.07866     14.82856     16.79695         0.039756      0.026095     -0.010750
