# total energy = -221.67484715 eV
 
CRYSTAL
PRIMVEC
0.001310 14.607402 14.615733 
4.151749 8.330542 12.544849 
4.158133 14.613571 14.609878 
PRIMCOORD
28 1
Li	      6.23500     31.27912     33.43057         0.005625     -0.004687      0.010069
Li	      4.16685     14.81111     18.86886         0.011248     -0.007286      0.021007
Li	      4.16917     16.67154     20.62617         0.003144     -0.036616      0.015245
Li	      6.21596     25.06172     27.19105        -0.007415      0.000556      0.005329
Li	      6.22075     27.01070     29.21856        -0.004779      0.014833     -0.040277
Ti	      4.14021     14.59984     14.78971         0.102035     -0.048062     -0.081366
Ti	      2.10007     14.61007     16.71018        -0.092405      0.037114      0.091849
Ti	      4.14447     16.62823     16.67929         0.022870      0.077978      0.082664
Ti	      4.13875     12.55231     16.68785         0.063816     -0.099242      0.032071
Ti	      6.25849     18.76274     20.98507        -0.076867     -0.121945      0.011798
Ti	      2.11143      6.23373      8.36778        -0.020450      0.135981      0.188472
Ti	      2.10188      8.29411     10.37203        -0.100800      0.099967     -0.080740
Ti	      4.11039     18.83994     22.94684         0.068144     -0.128664     -0.075401
Ti	      4.12205     20.85664     24.99996         0.025822      0.058567     -0.074606
O	      6.22338     25.01026     29.21293         0.006205     -0.070617      0.009565
O	      4.15539     16.80482     18.67244         0.005595      0.072821     -0.084201
O	      2.07603     18.78597     18.79770         0.025673      0.051551     -0.072155
O	      4.17271     18.72135     20.87007        -0.023398      0.032679      0.025648
O	      2.09701     20.82304     20.85763         0.010463     -0.028032     -0.069940
O	      4.19126     20.94906     22.88814        -0.003267     -0.072210     -0.058818
O	      6.24365     16.67930     20.88809         0.007681     -0.067248     -0.008006
O	      4.17226     22.96459     25.11937        -0.052105     -0.012394     -0.060160
O	      2.03875     10.39757     10.57672         0.068969      0.037810      0.029431
O	      4.13996     25.00594     27.13718        -0.011781      0.031132     -0.037719
O	      2.05130     12.47677     12.56644         0.010019      0.014951      0.114929
O	      4.14254     12.50016     14.61060        -0.012500     -0.027962      0.082774
O	      2.06675     14.57478     14.60601         0.016414      0.029997      0.075534
O	      4.17637     14.60084     16.92610        -0.047954      0.029029     -0.052995
