# total energy = -220.53875509 eV
 
CRYSTAL
PRIMVEC
-0.027616 4.101079 4.278562 
14.511765 2.020218 17.046776 
14.538949 2.028408 12.759546 
PRIMCOORD
28 1
Li	     14.60020      6.11495     21.19614         0.025259      0.000742     -0.025961
Li	      2.04359      4.09361      6.36871        -0.033676     -0.005386     -0.000472
Li	     18.57371      6.11346     21.36238        -0.041479     -0.001573     -0.011770
Li	     22.89821      6.09544     25.66183         0.045858      0.001210      0.020852
Li	     24.78162      6.09459     27.80981         0.012221     -0.002586      0.008031
Ti	      6.18351      4.21744     10.77689         0.012140     -0.300223     -0.208216
Ti	     26.99953      6.09310     30.00300        -0.132956     -0.003681     -0.498866
Ti	     14.43048      4.06472     19.01472         0.147959     -0.010966      0.361132
Ti	      2.06402      2.04164      4.23463         0.211760     -0.014586      0.008721
Ti	     18.71236      4.04640     19.25173        -0.467836      0.156811     -0.279850
Ti	      6.22544      2.01944      8.26603         0.046241     -0.001498      0.461335
Ti	     22.73210      4.02448     23.55285         0.339338      0.166392     -0.154391
Ti	     25.00321      4.04533     25.69650        -0.289464      0.001633     -0.234353
Ti	     12.41010      2.01537     14.74010         0.152005     -0.003638      0.453327
O	     16.58451      4.06811     19.13203         0.002603      0.005654      0.010956
O	     18.67208      4.07206     21.32870         0.091939     -0.016663      0.019842
O	     20.71444      4.16895     23.17214        -0.017206     -0.061792     -0.043816
O	      8.30665      2.03104      8.58656        -0.066767     -0.020203      0.041219
O	     10.33127      2.02022     10.75595         0.001298      0.014579     -0.012784
O	     12.54540      2.01847     12.62287        -0.027227      0.004631      0.076428
O	     14.48715      6.11969     19.08774        -0.068056     -0.000555     -0.081990
O	     16.58947      6.11906     21.27330        -0.000011     -0.001902     -0.004810
O	     18.65097      6.11695     23.43937         0.137223      0.022367      0.102426
O	     20.72434      6.11707     25.61029        -0.024937      0.038709     -0.092637
O	      8.26087      4.07630     10.70395        -0.098627      0.031016      0.099908
O	     10.38056      4.07115     12.87301         0.056217      0.007049      0.077702
O	     12.36646      4.07023     15.06800        -0.002918     -0.008228     -0.066131
O	     14.54944      4.06862     16.91412        -0.010900      0.002686     -0.025834
