# total energy = -221.38304285 eV
 
CRYSTAL
PRIMVEC
0.000233 2.107089 2.107109 
4.169331 -0.037367 4.252073 
16.519340 14.704725 2.153843 
PRIMCOORD
28 1
Li	      6.38967      4.24670      6.28948        -0.006506      0.003656     -0.002584
Li	      8.19308      4.07695      4.35221         0.013956     -0.002777      0.002078
Li	     12.51436     10.58748      6.27153         0.007578     -0.008530      0.010185
Li	     14.34853     10.46861      4.28441         0.004355     -0.002322     -0.000691
Li	     14.44469     12.54711      2.20485         0.002519      0.004123     -0.004450
Ti	      4.09017      0.01943      4.19499         0.025544      0.089384     -0.087841
Ti	     10.41562      8.33550      6.41533         0.046168     -0.018995      0.020345
Ti	     16.42595     12.54891      4.30969        -0.052794     -0.072342      0.073194
Ti	      2.24981      2.05736      4.26236         0.033211      0.009270     -0.002466
Ti	      4.11472      2.00955      2.20615        -0.026509     -0.062315      0.056532
Ti	      6.30205      6.35723      4.17850         0.070298      0.054440     -0.050406
Ti	      8.21237      6.31290      2.11797        -0.030598      0.001236     -0.006135
Ti	     10.26088      8.36628      2.17179        -0.090176      0.012761     -0.013404
Ti	     12.41806     12.64912      4.20962         0.044876      0.023329     -0.022275
O	      2.04920      2.04729      2.16607         0.014702     -0.014466      0.014234
O	      4.19314      4.10538      2.21689         0.026157     -0.017643      0.009987
O	      6.04210      6.31112      2.11762        -0.001731      0.003335      0.000364
O	     12.42780      8.42458      6.32759         0.023885     -0.037768      0.039350
O	     14.51327     10.42603      6.43383         0.066375     -0.035715      0.033727
O	     16.50168     12.58269      6.38334        -0.004761     -0.014599      0.015087
O	     18.51987     14.65546      6.41652         0.004214      0.004367     -0.007170
O	      4.41343      2.06934      4.25280        -0.045877      0.013839     -0.013835
O	      6.22929      4.27044      4.15881        -0.033226      0.021835     -0.022336
O	      8.33536      6.28734      4.25007        -0.021771      0.018717     -0.017251
O	     10.40519      8.36146      4.28334        -0.014949      0.003152     -0.008343
O	     12.33425     10.55537      4.19663        -0.056076      0.022720     -0.020034
O	     14.43310     12.59780      4.26098        -0.005290      0.000337      0.002255
O	     16.51976     14.69428      4.27104         0.006426      0.000971      0.001885
