# total energy = -92.40656540 eV
 
CRYSTAL
PRIMVEC
0.000087 2.072069 2.071367 
4.086698 -2.114395 2.113838 
4.028591 6.285603 -6.283286 
PRIMCOORD
16 1
Li	      2.21213      2.07990     -0.00589        -0.004201      0.003568     -0.001282
Li	      4.02530      2.06115     -2.05519        -0.038234     -0.015784      0.015275
Li	      4.10851      0.13791     -0.13179         0.000717     -0.005506      0.003710
Li	      3.99788      4.04565     -4.04039         0.009052      0.016130     -0.014245
Mn	      0.02203      0.01264     -0.00948         0.067004      0.029887     -0.029415
Mn	      6.09014      2.05641      0.02088        -0.024560     -0.038723      0.039046
Ni	      5.94322      4.12607     -2.04883         0.056730     -0.016705      0.016426
Ni	      2.03177     -0.01178      2.08666         0.005969     -0.014979      0.014117
O	      6.16821      4.15945     -4.15421         0.058044      0.008750     -0.007540
O	      6.10244      2.02339     -2.01789         0.007718     -0.095556      0.098133
O	      3.98830      6.40647     -4.32895        -0.015125      0.020528     -0.020887
O	      2.02033      2.23472     -2.22817         0.008479      0.016621     -0.019928
O	      3.96269      4.20587     -2.12836        -0.178892      0.009285     -0.009005
O	      1.91930     -0.04124      0.04414        -0.084100      0.105490     -0.106125
O	      4.21270      2.06298      0.01452         0.043926      0.012495     -0.012852
O	      4.08100     -0.16473      2.23869         0.087475     -0.035501      0.034573
