# total energy = -251.78944750 eV
 
CRYSTAL
PRIMVEC
0.000809 8.420831 8.386663 
8.303257 2.113300 10.475950 
4.151944 4.210867 4.193302 
PRIMCOORD
32 1
Li	      8.30268     10.56738     18.80728        -0.000701      0.032161      0.019998
Li	      6.33060      8.37341     14.69006        -0.022345      0.018661     -0.014574
Li	      8.30223      8.48493     12.73851        -0.000617      0.015570      0.021096
Li	     10.27353      8.37320     14.69020         0.022538      0.019618     -0.011581
Li	      8.30172      8.58071     16.65164         0.002957     -0.015958     -0.021753
Li	      8.30229     10.30528     14.66030         0.000792     -0.027485      0.000479
Ti	      6.22395     12.68100     14.74938         0.013946     -0.019085     -0.008622
Ti	      4.15122      8.46697     12.58050        -0.003515     -0.010350      0.004481
Ti	      8.30200      4.29078     12.43238         0.002430     -0.024882     -0.061634
Ti	      6.31077      6.19931      8.36259         0.075706     -0.048098      0.041907
Ti	      8.30162      6.24142     10.54978         0.007972      0.071386      0.023414
Ti	      6.22983      2.17947      8.28556        -0.047370     -0.006787     -0.012022
Ti	      4.15045      8.50288      8.47648         0.003564      0.258514     -0.001396
Ti	      6.22930      8.46993     10.55684        -0.012549     -0.008246     -0.010999
Ti	      6.14123     10.40967     12.55611        -0.073783     -0.057514      0.034903
Ti	      6.22323      6.38967     12.47920         0.039976     -0.006280     -0.009754
O	     10.39556     12.70622     20.95479         0.009297     -0.016992     -0.019534
O	      4.15067     10.58888     12.55491         0.002426     -0.005167     -0.000753
O	      6.27016     10.53402     14.61964         0.021763      0.000073      0.012825
O	      8.30237     10.57418     16.72045        -0.003539      0.000935      0.031435
O	      2.05173      4.13083      4.17499         0.005740      0.018729      0.005111
O	      4.15007      4.19717      6.30302        -0.000921      0.025139     -0.016407
O	      6.17167      4.19195      8.48369         0.001043     -0.005355      0.000260
O	      8.30207      4.16923     10.43280        -0.000927      0.014567      0.045125
O	     10.36165      8.49477     16.76153        -0.014519     -0.014399     -0.017550
O	      4.15023      6.34973      8.30592        -0.000056      0.000732      0.012849
O	      6.18264      6.32389     10.42631        -0.023469     -0.004953      0.007205
O	      8.30253      6.43138     12.66342         0.002039      0.010092     -0.021928
O	      2.09746      8.34150      8.36822        -0.007840      0.019031      0.005737
O	      4.15076      8.42484     10.50883        -0.001704      0.005516     -0.024242
O	      6.28153      8.40239     12.67721        -0.000660     -0.005092      0.001877
O	      8.30189      8.28531     14.72341         0.002327     -0.234079     -0.015955
