# total energy = -251.90349482 eV
 
CRYSTAL
PRIMVEC
0.054092 8.342627 8.366760 
8.448953 4.142337 12.633561 
4.208663 4.168939 4.212853 
PRIMCOORD
32 1
Li	      8.35878     12.47316     16.91560         0.001407      0.007648     -0.002143
Li	      8.60270      6.34952     14.72501         0.000529      0.001252     -0.001221
Li	      8.38162      6.10649     10.58152         0.022469      0.010484     -0.009592
Li	     10.57713     14.62829     21.09981        -0.012208      0.016640     -0.000590
Li	      8.43667      8.33014     16.65411         0.027930     -0.013371      0.017090
Li	      6.33714      4.09280     10.42886        -0.003639      0.006462     -0.015446
Ti	      4.13072      4.20581      4.28188        -0.041334      0.028047      0.006078
Ti	      2.19758      8.27554     10.45503         0.012202     -0.071129      0.011009
Ti	      6.42289      8.44122     14.63435        -0.000213      0.049601      0.004768
Ti	      2.15605      2.16142      4.24414        -0.031168      0.075797      0.014933
Ti	      2.17041      4.18584      6.17554        -0.006772      0.014427      0.055919
Ti	      8.38208      8.31000     12.60126         0.028755     -0.010972     -0.024725
Ti	      8.53633     10.34506     18.83605        -0.026952     -0.037278     -0.055435
Ti	      6.42109     10.36974     12.72980         0.046963     -0.022970     -0.036763
Ti	      8.39872     10.44981     14.72028        -0.011277      0.019499      0.063919
Ti	     10.55053     10.30253     16.88908         0.021286     -0.049191     -0.026794
O	      2.21401     10.37146     10.51548         0.010040     -0.015977      0.007693
O	      4.29808     10.42995     12.57461         0.005441     -0.017651     -0.010106
O	      6.26027     10.42198     14.82150         0.026620     -0.003947     -0.029513
O	      8.43780     10.40556     16.79908         0.009465     -0.005271      0.024612
O	     10.47117      8.30574     16.70186         0.009854      0.004387      0.021219
O	      4.24311      4.16889      6.33018         0.004682     -0.012203     -0.000148
O	      6.29921      4.23378      8.36893        -0.006535     -0.008394     -0.023790
O	      8.54207     12.39886     18.97819         0.009030     -0.018396      0.005680
O	      2.21722      6.31677      6.35995        -0.018062      0.024812     -0.004023
O	      4.28484      6.26351      8.38232        -0.011254     -0.005089      0.011763
O	      6.35587      6.24979     10.53577        -0.006266     -0.007985     -0.017241
O	      8.43114      6.25512     12.65266        -0.009650      0.011955     -0.006565
O	      2.15188      8.31093      8.35752         0.000815     -0.004622      0.011729
O	      4.27062      8.33962     10.48352        -0.012716      0.004212      0.007885
O	      6.25071      8.25925     12.55522         0.008221      0.004876      0.035760
O	      8.47762      8.36808     14.65928        -0.047665      0.024348     -0.035961
