# total energy = -251.70849209 eV
 
CRYSTAL
PRIMVEC
0.090784 16.769834 16.721248 
4.287542 6.299973 10.462334 
4.298442 12.576960 12.564189 
PRIMCOORD
32 1
Li	      4.45880     29.40608     29.42607        -0.011843      0.004048     -0.002020
Li	      0.12915      2.04213      2.07401         0.026595     -0.008612     -0.011506
Li	      2.21423     18.85233     20.76546        -0.010806      0.020802      0.000020
Li	      8.53365     29.41292     33.52084         0.002162     -0.006935     -0.020334
Li	      2.19786     12.67717     14.69360        -0.003406      0.001231     -0.008312
Li	      6.40437     27.12840     29.17550         0.008214     -0.012477      0.014748
Ti	      2.36722     16.76027     18.70268         0.054623      0.026735     -0.054269
Ti	      4.27881     16.68593     16.79265         0.006938     -0.028294     -0.042809
Ti	      6.48149     16.72556     18.90566        -0.039263      0.001996      0.022970
Ti	      4.31857     12.61810     16.74275        -0.043799     -0.027550      0.029761
Ti	      6.48333     18.79613     20.97499        -0.039286      0.017517     -0.022110
Ti	      4.26246     14.76763     18.74708        -0.030424      0.030368      0.048250
Ti	      2.19796      8.43450     10.49963        -0.000461      0.057374      0.000161
Ti	      2.20460     10.53359     12.54958         0.017393     -0.007642      0.018037
Ti	      4.41945     18.88390     22.92545        -0.032327      0.031281     -0.015523
Ti	      4.22092     27.29079     27.26532         0.019818     -0.054480      0.021291
O	      2.32540     18.80238     18.78359         0.048666     -0.028568      0.026181
O	      4.33121     18.88169     20.89850        -0.016967     -0.005452     -0.035403
O	      2.21012     20.92902     20.92846        -0.014327      0.024135      0.010769
O	      4.36746     21.00479     23.03485         0.039997      0.020386      0.002645
O	      6.55339     29.33211     33.42692        -0.014692     -0.016972     -0.046504
O	      4.37129     23.09496     25.12248         0.008453     -0.002265     -0.000223
O	      2.14443      8.32429      8.33123         0.030350     -0.035975     -0.021467
O	      4.32946     25.22387     27.13247        -0.035908      0.012800      0.003929
O	      1.96236     10.47036     10.50198         0.044181      0.002277      0.055616
O	      4.25310     10.45870     12.56128        -0.023104      0.006451     -0.036741
O	      2.25439     12.63965     12.63027         0.017827     -0.029158      0.015958
O	      4.44008     12.49316     14.69835        -0.010451     -0.002388      0.045888
O	      6.37678     21.03942     25.08136        -0.000263     -0.000784     -0.016170
O	      4.33901     14.64363     16.68378        -0.018307     -0.002310      0.022071
O	      6.50840     23.07584     27.16988         0.023009     -0.016236      0.012844
O	      4.42164     16.83395     18.93350        -0.002593      0.028700     -0.017747
