# total energy = -251.42921492 eV
 
CRYSTAL
PRIMVEC
-0.000160 8.482540 8.474081 
8.309332 4.291379 12.660703 
4.155010 8.482921 8.473614 
PRIMCOORD
32 1
Li	      8.31004     12.85099     21.03446         0.000483      0.012082     -0.030202
Li	      4.15546      2.20381      6.35866         0.000729      0.010964      0.000858
Li	      4.15562     12.66792     12.67594        -0.000163     -0.005882      0.009285
Li	     10.38808     12.91550     19.20736        -0.000536      0.007407      0.010506
Li	      8.31063     14.79477     19.14412        -0.000488     -0.017115      0.025871
Li	      6.23289      6.24666     12.49927        -0.000473     -0.007482     -0.016605
Ti	      2.07824      8.50756     10.55457         0.000536      0.041326      0.034139
Ti	      8.31025     16.98926     21.19005         0.002348     -0.081511      0.034951
Ti	      6.23259      8.59406     14.66990         0.003146     -0.116626     -0.051843
Ti	      4.15547     10.54348     10.55728         0.004220     -0.032715     -0.080106
Ti	      6.23302     10.47115     12.74635        -0.000656      0.028879     -0.112161
Ti	     10.38771     19.05069     25.50168        -0.001924      0.130646      0.067292
Ti	      2.07815      4.40216      6.28813         0.000821     -0.037549      0.126312
Ti	      4.15557      4.32475      8.48829        -0.003247      0.027998      0.069663
Ti	      8.30996     10.65326     18.98503        -0.001118      0.078288     -0.045060
Ti	      6.23327     14.84449     16.96001        -0.001866     -0.046393     -0.034251
O	     10.38738     14.94169     23.25290        -0.001062     -0.016430     -0.046099
O	      4.15519     10.64460     12.70870         0.002602     -0.047851      0.021184
O	      6.23305     10.65753     14.84503        -0.000882     -0.012833      0.019157
O	      8.31004     10.65655     16.87939         0.003029     -0.014972      0.045528
O	     10.38751     16.98676     25.32798        -0.000424      0.020258     -0.010395
O	      4.15576     12.70931     14.81064        -0.001396      0.047985     -0.041299
O	      6.23283     12.70249     16.91681         0.001967      0.016185      0.042175
O	      8.31008     12.71972     18.93270         0.001701     -0.062965     -0.127136
O	     10.38739     10.83182     19.06620         0.002171      0.023092     -0.025685
O	      4.15563      6.41881      8.44652         0.002908     -0.081881     -0.063306
O	      6.23309     14.93408     18.93435        -0.000250      0.052491     -0.125766
O	      8.31045     14.92550     21.24350        -0.002473      0.055426      0.127119
O	      2.07834      8.41698      8.57981        -0.000071     -0.053876      0.119704
O	      4.15599      8.44847     10.59279        -0.004513      0.093652      0.063497
O	      6.23299      8.33155     12.63272        -0.001535     -0.027810      0.029297
O	      8.31048      8.50450     14.82028        -0.003586      0.017212     -0.036626
