# total energy = -251.70099746 eV
 
CRYSTAL
PRIMVEC
0.025251 8.324467 8.337548 
4.218114 2.078878 6.268563 
6.321367 6.255304 4.176732 
PRIMCOORD
32 1
Li	      2.21285      8.33357     10.39533         0.003585     -0.017713      0.012805
Li	      6.18246      6.27062      8.30342         0.018315      0.018065      0.022327
Li	      4.14412      6.33339     10.31250        -0.006920      0.007323      0.015499
Li	      4.22596      6.35828      6.39371        -0.009047     -0.010095     -0.002884
Li	      6.49578     10.29275     12.63426         0.019078      0.018449      0.008808
Li	      4.20846      8.25809      8.40724         0.009605     -0.005730     -0.016394
Ti	      6.39692     14.40166     12.56343        -0.007330      0.008756     -0.008723
Ti	      6.35785     12.55064     14.52599         0.030270     -0.022561     -0.054290
Ti	      4.25629     10.48584     10.41813         0.033634      0.035025     -0.025839
Ti	      6.37493      8.34169      6.33707        -0.003688      0.015633      0.058428
Ti	      8.36744      8.33345      8.40298        -0.001518     -0.010302     -0.029389
Ti	      4.30146      4.21776      4.10324         0.034835      0.020229      0.014217
Ti	      6.40352      8.34070     10.36148         0.018316      0.031493     -0.048374
Ti	      8.34752     10.41329     10.39569        -0.074005     -0.065076     -0.002314
Ti	      6.32381     12.49062     10.47393         0.013189     -0.034024      0.048694
Ti	      8.37506     12.53200     12.56851        -0.083506      0.016038      0.029209
O	      2.11737      2.10573      2.06983        -0.020130      0.014759      0.003694
O	      8.39943     14.62409     16.60640        -0.000697      0.011048     -0.003848
O	      4.25026     10.42482     12.52771         0.007881      0.015017     -0.002553
O	      6.35082     12.23283     12.51710         0.011593      0.022642      0.019499
O	      2.15471      4.17490      4.13010        -0.028980      0.010832     -0.013603
O	      8.49279      8.35261     10.56126        -0.005956     -0.005212      0.023450
O	      4.18487      4.11681      6.26432        -0.008397     -0.009446      0.026630
O	      6.31993      6.27293      6.27509        -0.011059      0.017976     -0.001971
O	      2.12497      6.27156      6.23701         0.026727     -0.023754     -0.010293
O	      8.51813     10.45279     12.46739         0.009499      0.018102     -0.004766
O	      4.13790      6.14134      8.35971         0.002095     -0.052935     -0.018428
O	      6.28522      8.33781      8.33831         0.012705      0.002635     -0.024311
O	      2.12500      8.33694      8.36460        -0.002981     -0.023397      0.000807
O	      8.41759     12.51323     14.61999        -0.009526     -0.002849     -0.013440
O	      4.29713      8.38378     10.49644         0.007132      0.006375      0.003842
O	      6.31263     10.41362     10.38448         0.015278     -0.007304     -0.006487
