# total energy = -251.78459907 eV
 
CRYSTAL
PRIMVEC
0.020334 4.178400 4.203355 
8.386918 0.068622 8.379021 
6.311970 4.203933 2.106925 
PRIMCOORD
32 1
Li	      8.37300      4.17998      4.26406        -0.004043     -0.005953      0.012584
Li	      4.15310      4.18151      8.28118         0.003547     -0.003569      0.013403
Li	      8.44697      2.38303      6.25678        -0.003859      0.007857     -0.007171
Li	      6.27476      6.05596      4.24018         0.004548     -0.005279      0.010188
Li	      4.27565      4.23329      4.31269        -0.004701      0.000325     -0.014176
Li	      6.34729      4.25930      6.23230         0.007802      0.008799     -0.009935
Ti	     14.62405      4.26727     10.44487        -0.069764      0.057313     -0.014372
Ti	     10.50491      2.23768      8.46981        -0.071334      0.008335      0.052642
Ti	      4.17756      6.24911      6.28719        -0.034191      0.015382      0.032070
Ti	      6.26537      2.09933      4.28383        -0.043386      0.023526      0.065777
Ti	      6.33736      0.12073      6.32907        -0.009609      0.080949     -0.011618
Ti	     10.45793      4.18419     10.44091         0.009493     -0.077279      0.012105
Ti	      2.14299      2.13627      4.10816         0.043937     -0.027536     -0.069389
Ti	      4.25244      2.16538      6.30591         0.024242     -0.015619     -0.025078
Ti	      6.29182      2.06748      8.30117         0.063094     -0.008466     -0.058881
Ti	      8.48367      4.24050      8.43310         0.069872     -0.048183      0.007427
O	      2.00654      1.99051      2.11054        -0.007431      0.029503      0.000728
O	     12.53328      4.21339     10.61089         0.031684      0.033402     -0.013894
O	      4.20410      2.11743      4.19478         0.001976      0.002030      0.007687
O	      6.28409      4.09237      4.08137         0.012720     -0.053528     -0.033449
O	      6.40223      2.24594      6.28160         0.008611     -0.032036     -0.000423
O	      8.43649      4.34735      6.41718        -0.012340      0.055123      0.030856
O	      8.39821      2.15214      8.38565        -0.001541     -0.001082      0.000442
O	     10.57403      4.29528      8.26573        -0.033005     -0.029417      0.013902
O	      2.08180      4.21754      4.18009        -0.014117     -0.013495      0.025125
O	     12.63703      6.35472     12.56390        -0.009386     -0.034497     -0.020228
O	      4.21470      4.20720      6.29644        -0.000667     -0.002471      0.003855
O	      6.33925      6.29230      6.32227         0.038329      0.013133      0.014967
O	      6.34741      4.19651      8.41471         0.015352      0.010825     -0.026955
O	      8.40177      6.32602      8.37910        -0.029413     -0.016973     -0.012198
O	      8.40785      4.24217     10.48725         0.003004     -0.003427     -0.000915
O	     10.49190      6.33254     10.51634         0.010576      0.032306      0.014925
