# total energy = -125.48281422 eV
 
CRYSTAL
PRIMVEC
0.000065 2.081734 2.081380 
6.063143 -0.159785 6.404159 
10.078170 6.270512 4.137745 
PRIMCOORD
18 1
Li	     10.02349      6.20743      4.20169        -0.011849      0.000016      0.000474
Li	      2.07620      2.09355      4.15176         0.008673     -0.000189     -0.000377
Li	      4.21407      4.10960      4.22215        -0.050230     -0.025554      0.022858
Li	     12.12052      5.86032     10.79485        -0.002892      0.024312     -0.024403
Li	      6.04257      2.28134      3.96657         0.005742     -0.021617      0.021338
Li	      7.88633      4.19441      4.13607         0.043576      0.023262     -0.024715
Ti	      7.92217      1.94192      6.38359        -0.287552     -0.062679      0.064251
Ti	     10.24043      6.19794      8.37397         0.284877      0.062468     -0.063599
Ti	     14.11977      6.16799      8.41078         0.003146      0.010066      0.008498
O	      2.06985      2.20905      1.95456        -0.022888      0.091333     -0.088418
O	     10.04962      4.20383      8.28620        -0.018933      0.074881     -0.071756
O	     12.09737      6.25452      8.31649        -0.235885     -0.005358      0.008451
O	      4.04051      1.86591      4.37696         0.034064     -0.076562      0.069482
O	      6.05015      4.15103      4.17786        -0.003692     -0.001591      0.002786
O	     14.12217      6.27263     10.37931        -0.035454      0.066811     -0.078154
O	      6.06525      1.88556      6.44108         0.240796      0.005974     -0.008630
O	      8.11261      3.93694      6.47190         0.025119     -0.079802      0.075738
O	     10.02985      6.09083      6.39952         0.023382     -0.085773      0.086179
