# total energy = -123.91051519 eV
 
CRYSTAL
PRIMVEC
0.000099 2.111468 2.111429 
6.095536 -0.296641 6.630802 
8.030485 6.425518 2.020713 
PRIMCOORD
18 1
Li	      0.16327      2.13268      2.09697        -0.039937     -0.015521      0.015477
Li	      8.26985      3.68923      8.98154        -0.006516     -0.018239      0.018600
Li	      9.99593      3.70836      6.85066        -0.025993      0.033325     -0.036815
Li	      2.12593      2.35741      3.97933         0.025626     -0.035352      0.035594
Li	      3.85311      2.37594      1.84848         0.004765      0.016527     -0.016808
Li	      5.86352      4.23305      2.10298         0.043278      0.015975     -0.014524
Ti	     11.94911      6.15848      6.51338        -0.240864     -0.093516      0.091144
Ti	      6.06130      1.97787      4.35983         0.009408      0.005864     -0.002206
Ti	      8.20319      6.33353      6.33549         0.236145      0.087483     -0.086012
O	      1.95754      2.08469      2.14059         0.059632     -0.006840      0.009128
O	      4.06909      4.27770      2.05831        -0.056118      0.006699     -0.008295
O	     12.21975      6.35459      8.42753        -0.021141      0.133519     -0.132400
O	      4.10872      1.78109      4.55354         0.103994     -0.041957      0.038520
O	      6.08134      3.97096      4.47495        -0.002261     -0.096370      0.090723
O	      7.93251      6.13647      4.42099         0.019373     -0.130285      0.127448
O	      6.04189      2.09323      6.35244        -0.005378      0.094798     -0.090315
O	      8.01441      4.28379      6.27335        -0.112360      0.044123     -0.039191
O	     10.07616      6.24536      6.42365         0.008347     -0.000232     -0.000069
