# total energy = -118.34828265 eV
 
CRYSTAL
PRIMVEC
-0.002894 2.095933 2.095893 
2.097652 -0.003165 2.096145 
19.325916 19.322559 -0.477508 
PRIMCOORD
18 1
Li	      2.10562      2.10460      4.17990         0.057168      0.056773     -0.055164
Li	      4.27856      4.28066     -0.09034         0.063784      0.063629     -0.059514
Li	     11.08674     11.08056      3.57716        -0.064564     -0.062367      0.066100
Li	     12.91053     12.90589      3.84769        -0.063216     -0.064307      0.063049
Li	     12.80580     12.80288     -0.24307        -0.062825     -0.062063      0.068514
Li	     14.62504     14.62523      0.03195        -0.070872     -0.075670      0.066116
Ti	      4.24466      2.14515      2.04144         0.192834      0.193066     -0.190531
Ti	      6.41756      6.41996     -0.12888         0.192844      0.192193     -0.198748
Ti	     19.29367     19.29039      3.74177        -0.066978     -0.074849      0.074125
O	      2.17139      2.17010      2.01895         0.057381      0.065848     -0.072749
O	      4.21724      4.21916      2.06411         0.171737      0.163959     -0.161683
O	      6.42832      6.42866      1.95757         0.167100      0.177533     -0.196002
O	      8.39862      8.40269      2.07186        -0.298021     -0.305171      0.327876
O	     10.81760     10.81412      1.74878        -0.087496     -0.092990      0.091795
O	     12.85586     12.85175      1.80495        -0.102219     -0.101640      0.102026
O	     14.89737     14.89478      1.85735        -0.127599     -0.123099      0.124903
O	     17.32334     17.31612      1.52980        -0.009613      0.003832     -0.005048
O	     19.28403     19.28112      1.65855         0.050554      0.045323     -0.045064
