# total energy = -144.87345448 eV
 
CRYSTAL
PRIMVEC
-0.041193 4.188745 4.214095 
10.421023 0.003931 10.427920 
6.251073 2.073141 4.173494 
PRIMCOORD
20 1
Li	      6.23888      6.22824      8.39890         0.039501     -0.012042      0.003481
Li	      2.04369      4.18813      6.29787         0.004985     -0.001788      0.005530
Li	      4.14383      0.03229      4.16064        -0.043640      0.017754     -0.003651
Li	      6.25485      4.19818     10.44714         0.014927      0.023127     -0.002339
Li	     14.54963      2.06946     12.54151        -0.015598     -0.031615      0.000881
Li	      8.31571      4.16665      8.36647         0.006497     -0.000306      0.004339
Ti	      0.02091      2.09411      2.13991         0.036135     -0.001952      0.041505
Ti	     10.36311      4.16663     10.42163        -0.065222      0.011908     -0.060494
Ti	      6.28838      2.09759      8.41771         0.129846      0.001304      0.152071
Ti	     14.51373      4.16799     14.57045        -0.121196      0.000384     -0.148684
O	     12.39991      2.16819     12.50686        -0.093329      0.143887      0.016233
O	      4.18341      2.16738      4.27872        -0.025677      0.132406      0.150802
O	      6.19048      2.13784      6.31043        -0.040020      0.038730      0.052343
O	      8.26912      2.06963      8.41480        -0.054039     -0.032726      0.083391
O	     10.35908      2.14700     10.50125        -0.022300      0.048671      0.042769
O	     12.53378      4.19605     14.57415         0.049009      0.032922     -0.083730
O	      4.19170      4.12281      6.25030         0.049276     -0.041092     -0.059746
O	      6.19827      4.09414      8.28167         0.031658     -0.125212     -0.143003
O	      8.40307      4.09727     10.48159         0.097580     -0.150797     -0.016903
O	     10.44417      4.11870     12.48701         0.021608     -0.053562     -0.034795
