# total energy = -144.85369043 eV
 
CRYSTAL
PRIMVEC
-0.023044 4.160358 4.097859 
10.500813 2.057852 12.256998 
6.302272 2.058929 4.083869 
PRIMCOORD
20 1
Li	     12.63141      6.10857     14.31957        -0.014642     -0.018675     -0.001775
Li	      0.07883      2.07699      2.08321         0.016883      0.007470     -0.005085
Li	      8.31054      4.12648      8.21538        -0.014845     -0.021036      0.002385
Li	      4.21697      2.07321      6.15045         0.014887     -0.013239      0.002622
Li	      6.29227      2.13528      8.17726        -0.008316      0.001577     -0.018381
Li	      8.30770      2.13423     10.14082        -0.002631      0.013444     -0.001698
Ti	     10.44227      2.06404     12.18805         0.133265     -0.013649     -0.052253
Ti	      2.02547      4.29228      6.12105        -0.105154      0.340776     -0.021764
Ti	      4.24677      4.17476      8.23066         0.000849     -0.079172      0.091410
Ti	      8.45704      4.07691     12.22947        -0.090836      0.038254     -0.115393
O	     12.60964      4.01935     14.31647         0.002173     -0.358522     -0.010144
O	      4.21571      2.03692      4.10863         0.125282      0.019997     -0.029435
O	      6.40898      2.08243      6.00230         0.128145      0.006519     -0.047618
O	      8.44178      6.14327     12.20875         0.038974     -0.046535     -0.039411
O	     10.48735      6.23172     14.29855        -0.003354     -0.000424      0.043282
O	     12.58866      6.17008     16.41887         0.005593      0.003094      0.075489
O	      4.09497      4.12509      6.14335        -0.022882      0.014726     -0.040630
O	      6.20627      4.19483      8.15851        -0.145169      0.120526      0.012203
O	      8.36710      4.17676     10.34797         0.022919      0.035879      0.176556
O	     10.49138      4.17090     12.26587        -0.081141     -0.051011     -0.020359
