# total energy = -162.95479904 eV
 
CRYSTAL
PRIMVEC
0.048325 22.577739 23.227572 
2.046095 4.104406 6.339600 
2.046215 8.210834 6.338268 
PRIMCOORD
22 1
Li	      4.00188     12.31403     12.67942         0.015928      0.000070      0.004122
Li	      0.10302      6.15646      6.33117        -0.021849     -0.001459     -0.015709
Li	      2.10474     12.31333     14.67646         0.022784     -0.000498     -0.049373
Li	      0.03798     10.26062     10.53956         0.000735      0.001893     -0.000408
Li	      4.11368     30.78719     31.69634         0.008770     -0.000940      0.003924
Li	      2.04852     28.73399     27.55846        -0.027427      0.001368      0.050544
Ti	      4.05061     14.36715     14.79524        -0.120180     -0.004874      0.103219
Ti	      0.05442      4.10309      4.21183         0.113477      0.004737     -0.070929
Ti	      4.11331     24.62983     25.34738         0.094126     -0.002962      0.002235
Ti	      2.07709     22.57614     21.11773        -0.006551      0.016142     -0.008148
Ti	      0.03851     16.41807     16.88935        -0.070673      0.003826     -0.012999
O	      2.05445     24.62984     25.29291        -0.001081      0.000130     -0.050996
O	      2.09440     26.68089     27.45666        -0.023372     -0.002027     -0.011238
O	      2.17138     28.73308     29.65960         0.139619      0.002445      0.036914
O	      2.03582      8.20928      8.46848         0.000827      0.001849     -0.054931
O	      2.06769     10.26084     10.53987         0.008654     -0.000197      0.044564
O	      1.98139     12.31465     12.57625        -0.149601     -0.000839     -0.038177
O	      2.05923     14.36762     14.77897         0.010337     -0.006876      0.011334
O	      2.09798     16.41798     16.94391         0.003372     -0.001487      0.049047
O	      2.04602     18.47210     19.03958        -0.005817     -0.004378      0.020623
O	      2.07590     20.52389     21.11808         0.005215     -0.008691     -0.000897
O	      2.10670     22.57563     23.19665         0.002708      0.002768     -0.012722
