# total energy = -162.69836378 eV
 
CRYSTAL
PRIMVEC
-0.000089 2.077163 2.076704 
23.278446 -0.455293 23.297938 
6.298226 1.985782 4.244497 
PRIMCOORD
22 1
Li	     23.25271     -0.40090     23.24385        -0.031010     -0.001411     -0.002298
Li	      4.22215     -0.06961      4.22187        -0.006875     -0.003149      0.003765
Li	     14.77286      3.88287     14.80944         0.006965      0.002363     -0.006878
Li	     19.02190      3.75713     19.08384         0.030166      0.002245     -0.002626
Li	     17.14355      1.72955     19.03333         0.008775      0.004875     -0.001580
Li	     25.13202      1.62868     23.29071        -0.011620     -0.005893      0.002856
Ti	      8.32638      1.91997      6.38634        -0.044224      0.000359     -0.003984
Ti	     12.64279      1.85783     10.60025         0.009996      0.007750     -0.002643
Ti	     10.67065      1.89367     12.64137         0.044007     -0.003473      0.004078
Ti	     20.99909      1.66078     19.10313        -0.354784     -0.016211      0.018318
Ti	     21.27684      1.69846     23.22084         0.372549      0.007818     -0.012356
O	     25.42507      1.52957     25.46530         0.029848     -0.028411      0.030224
O	      4.11551      2.09557      4.13455        -0.044900      0.031250     -0.035144
O	      6.31259      1.95323      6.35165         0.051748     -0.026267      0.028543
O	      8.44170      1.95579      8.42752        -0.018551      0.054742     -0.058551
O	     10.54900      1.85901     10.59925         0.019775     -0.053098      0.050792
O	     12.68827      1.85790     12.67751        -0.057351      0.025200     -0.025240
O	     14.87855      1.71770     14.89285         0.043881     -0.032653      0.033385
O	     16.84774      1.82669     16.86158        -0.021854      0.028979     -0.025319
O	     19.15934      1.68703     19.07687         0.337730      0.014634     -0.009399
O	     21.13728      1.67857     21.16282        -0.000825      0.000712      0.003514
O	     23.11639      1.66865     23.25014        -0.363447     -0.010361      0.010543
