# total energy = -162.83639496 eV
 
CRYSTAL
PRIMVEC
0.000097 2.077393 2.076646 
22.752524 -0.430038 23.274048 
16.520242 1.815875 14.798702 
PRIMCOORD
22 1
Li	     18.53820      1.79244     16.89706         0.008291     -0.022246      0.024516
Li	      6.25309      1.93894      8.44238        -0.005324      0.022800     -0.021950
Li	     26.73606      1.58282     25.41269         0.025937     -0.030238      0.032245
Li	     30.97532      1.46136     29.68847         0.005373     -0.008297      0.010236
Li	     16.56771      1.84229     18.92617        -0.004925      0.005545     -0.010491
Li	     20.80771      1.71877     23.20139        -0.032600      0.035552     -0.034357
Ti	     16.40046      1.79266     14.82325        -0.169514     -0.058243      0.048090
Ti	      4.13907      2.00018      6.30759        -0.005020     -0.010254      0.005551
Ti	      8.38932      1.93884     10.51718         0.164306      0.064047     -0.049743
Ti	     12.47593      1.87998     14.73600         0.071850      0.003720     -0.027884
Ti	     35.06488      1.42257     33.88014        -0.056634     -0.012098      0.030698
O	     24.73535      1.69254     25.30072        -0.038203      0.043324     -0.032825
O	     26.89972      1.55476     27.51783         0.064013     -0.015135      0.027692
O	     28.92694      1.60824     29.54175        -0.035089      0.028830     -0.007212
O	      8.27396      1.85834      8.52549         0.011867     -0.082953      0.075948
O	     10.32085      1.87592     10.58445        -0.090897     -0.015205      0.007271
O	     12.39629      1.86727     12.67047        -0.000591     -0.003434     -0.001706
O	     14.47163      1.85704     14.75600         0.084537      0.015893     -0.007153
O	     16.51751      1.87310     16.81544        -0.007228      0.080328     -0.071253
O	     18.62117      1.69127     19.07647         0.018257     -0.014463     -0.002483
O	     20.63923      1.75164     21.09425        -0.052245      0.016690     -0.024133
O	     22.80825      1.61001     23.31370         0.043838     -0.044162      0.028942
