# total energy = -160.68784978 eV
 
CRYSTAL
PRIMVEC
-0.000341 2.087663 2.088613 
2.087302 -0.000334 2.088606 
23.712946 23.717311 -0.757184 
PRIMCOORD
22 1
Li	      2.32732      2.33291      3.93483        -0.006140     -0.008983      0.007881
Li	      1.91075      1.91534      0.17664         0.005329      0.008985     -0.002194
Li	      8.60763      8.61187      3.91032         0.015517      0.015016     -0.019004
Li	     12.87906     12.88131      3.81603         0.014823      0.013944     -0.014946
Li	     15.07286     15.07404     -0.46213        -0.009919     -0.010657      0.008645
Li	     19.34890     19.35050     -0.56070        -0.031643     -0.030653      0.031279
Ti	      6.47138      6.47567      3.95704        -0.013029     -0.013403      0.016628
Ti	     10.74495     10.74765      3.86034         0.033699      0.033612     -0.026670
Ti	     12.93160     15.01956      1.67521         0.023398      0.024389     -0.019132
Ti	     17.20929     17.21071     -0.50728        -0.014730     -0.015521      0.010985
Ti	     21.48123     21.48247     -0.60897         0.014830      0.016852     -0.004924
O	      2.11914      2.12403      2.05563        -0.001372      0.000167      0.000193
O	      4.49387      4.49837      1.75879         0.081215      0.079140     -0.087676
O	      6.46596      6.46985      1.87515        -0.043615     -0.044154      0.044479
O	      8.67614      8.67897      1.75313        -0.051656     -0.052781      0.050042
O	     10.73123     10.73341      1.78728         0.030432      0.032248     -0.034988
O	     12.94839     12.94878      1.65801        -0.040349     -0.040124      0.037275
O	     15.00376     15.00379      1.69185         0.040676      0.043073     -0.037871
O	     17.22381     17.22550      1.56564        -0.034165     -0.034122      0.030895
O	     19.27849     19.27985      1.59981         0.039265      0.039834     -0.038360
O	     21.48707     21.48891      1.47527         0.041300      0.038724     -0.046741
O	     23.46015     23.46176      1.59109        -0.093866     -0.095587      0.094204
