# total energy = -91.86336526 eV
 
CRYSTAL
PRIMVEC
-0.000061 2.071173 2.071553 
4.031895 -2.099292 2.099528 
4.042723 6.308401 -6.309584 
PRIMCOORD
16 1
Li	      2.01713      2.08605     -0.01666        -0.001236      0.000071     -0.000348
Li	      2.04924      0.03190      2.03979         0.028849      0.005795     -0.006857
Li	      4.03362      2.07112      2.06772        -0.000520      0.000246     -0.000561
Li	      6.01635      2.04241      0.02595        -0.030179     -0.006112      0.006911
Mn	      0.07009      0.02300     -0.02292         0.078688      0.030731     -0.032764
Mn	      3.96354      4.15074     -0.01068        -0.078249     -0.030849      0.031746
Ni	      6.05406      4.19147     -2.12191         0.000122     -0.000034      0.000511
Ni	      4.03807      6.27660     -2.13585         0.000494      0.000407      0.000035
O	      6.08523      6.23629     -2.09499         0.150715      0.111919     -0.112607
O	      6.02291      4.21786     -0.07725        -0.150882     -0.112357      0.112771
O	      4.05974      6.35126     -4.28127         0.118323      0.108151     -0.108424
O	      2.14441      4.17976     -0.03993         0.096574      0.004706     -0.003943
O	      4.01645      4.13094     -2.06193        -0.115552     -0.108015      0.108640
O	      1.88916      2.06485      2.07775        -0.095314     -0.003840      0.004374
O	      4.04285      2.22650     -0.15785        -0.014807      0.054388     -0.052489
O	      4.02303     -0.15187      2.22380         0.012975     -0.055209      0.053003
