# total energy = -177.47528468 eV
 
CRYSTAL
PRIMVEC
-0.024356 9.232049 9.230434 
6.031421 4.845918 11.301145 
6.031386 6.998241 9.149112 
PRIMCOORD
24 1
Li	     12.06146     11.84442     20.44932        -0.000799     -0.001752     -0.001626
Li	      2.04791      8.93874     11.08835         0.004995      0.012492      0.011064
Li	      6.01761      9.46083     15.91343         0.003614      0.003087      0.003022
Li	      9.98716     12.13804     18.59096        -0.005974     -0.017049     -0.015635
Li	      2.13758      7.32852      9.47815        -0.003879      0.009713      0.008290
Li	      9.89687     13.74789     20.20084         0.004948     -0.013365     -0.011842
Ti	      9.89139     16.55201     23.00355        -0.034883      0.000727      0.002013
Ti	      5.89762      9.36176     11.51394        -0.053734     -0.224644     -0.217584
Ti	      2.02086      2.49512      4.64425        -0.005883      0.035584      0.036126
Ti	     10.01499     18.58187     25.03350         0.004404     -0.018926     -0.019977
Ti	      2.14443      4.52477      6.67440         0.033700     -0.003180     -0.003596
Ti	      6.13877     11.71393     18.16503         0.054870      0.219406      0.215207
O	      7.90637      7.39475     13.84711        -0.040453      0.030911      0.028785
O	      4.11619     11.64706     13.79551         0.003748     -0.018832     -0.016734
O	      6.08972     11.65952     15.96065        -0.010128     -0.001092     -0.002851
O	      7.91942      9.42965     15.88207        -0.001090      0.030796      0.028309
O	      4.13017     13.68229     15.83073         0.024485     -0.029982     -0.028508
O	      6.15083     13.58467     17.88454        -0.000075     -0.208963     -0.204599
O	      8.06053     11.39485     17.84788        -0.078405     -0.066762     -0.065619
O	      4.12030      6.98307      9.13295        -0.025974      0.007195      0.005928
O	      5.88670      7.49158     11.79379        -0.003624      0.206575      0.200198
O	      7.91555     14.09314     20.54584         0.020316     -0.011798     -0.011478
O	      3.97501      9.68191     11.82988         0.085228      0.058843      0.057204
O	      5.94600      9.41791     13.71721         0.024593      0.001016      0.003903
