# total energy = -180.74775946 eV
 
CRYSTAL
PRIMVEC
0.004609 6.266659 6.265354 
4.187026 4.207130 8.327533 
6.287017 4.177222 2.093661 
PRIMCOORD
24 1
Li	      4.22044      4.27866      8.21240        -0.023200      0.009694     -0.011046
Li	      8.37506     10.48292     10.47880        -0.003805      0.001561      0.000636
Li	      8.35438     12.43256     12.59545         0.020828     -0.012101      0.013284
Li	      4.20248      8.42918     12.52996         0.012310      0.002751     -0.002323
Li	      6.29098     10.44779     12.49299        -0.009428      0.017388      0.017569
Li	      4.19527      6.21193      6.19929        -0.000358     -0.002353      0.003454
Ti	      6.28362      6.13775      8.18734        -0.002669     -0.136611     -0.149414
Ti	      4.18449      8.43850      8.40925         0.017483     -0.018140     -0.006187
Ti	      4.20441      6.33637     10.44751        -0.086676      0.013298      0.027293
Ti	      6.29574      8.40028     10.45388         0.011431      0.016545      0.015949
Ti	      4.19173      4.14476      4.13024        -0.021521     -0.022858     -0.037258
Ti	      8.37203      8.39976      8.38764         0.087092      0.021450      0.031532
O	      2.11816      2.09063      2.04195         0.011156     -0.002994      0.015119
O	      8.46081      8.48044     10.41219        -0.021134     -0.034927     -0.005921
O	      4.12314      8.36366     10.51591         0.044775     -0.018075     -0.032350
O	      6.26530     10.47735     10.45042        -0.014774     -0.026699      0.019726
O	      2.12358      4.19677      4.19565         0.023153      0.014695     -0.029578
O	      8.52432     10.39785     12.49906         0.100276     -0.024495      0.014314
O	      4.05109      4.18224      6.17822        -0.105681      0.016507     -0.025324
O	      6.31058      6.24487      6.27187        -0.005640      0.003295      0.132921
O	      2.07616      6.28671      6.22807         0.007273      0.127664      0.003415
O	      8.26291     12.61814     14.64073        -0.065280      0.035928     -0.007906
O	      4.31440      6.33380      8.39513         0.052610      0.011482      0.030317
O	      6.26308      8.31986      8.35237        -0.028220      0.006996     -0.018221
