# total energy = -181.03365337 eV
 
CRYSTAL
PRIMVEC
-0.029170 6.168426 6.244351 
8.264754 -0.000258 8.287286 
8.264625 4.112033 8.287291 
PRIMCOORD
24 1
Li	      8.24680      4.11203      8.33334         0.020617      0.000027      0.003030
Li	     10.36263      4.11189     10.41469        -0.000806     -0.000701      0.000763
Li	      4.10536      6.16777     10.24094        -0.005019     -0.000287     -0.005175
Li	      8.25840      4.11142     12.40041        -0.026384      0.002731      0.008770
Li	     12.36852      8.22361     16.74279         0.012574      0.000814     -0.000546
Li	      6.14182      4.11119     10.32352         0.000605      0.002776     -0.004175
Ti	      6.18796      6.16719     12.42297         0.007556      0.003028     -0.056523
Ti	      8.25278      2.06100     10.36860        -0.010776     -0.004346     -0.007426
Ti	     10.25847      6.16761     12.41481        -0.070292     -0.000347     -0.139938
Ti	     12.38388      6.16743     14.51303         0.010348     -0.000254     -0.000569
Ti	      6.24617      2.05566      8.32310         0.071345     -0.001677      0.132623
Ti	     10.28754      8.22393     14.55823        -0.012602     -0.002144      0.065534
O	     10.33721      2.05522     10.36800         0.047771      0.000026      0.024564
O	      4.00211      2.05526      4.24764        -0.009342      0.001917      0.128909
O	      6.18739      8.22338     12.42660        -0.009611      0.001644      0.035471
O	      8.24679      8.22369     14.53067        -0.038532      0.000351      0.032685
O	     10.29574      4.11136     12.45558         0.006816      0.000167      0.040619
O	      4.11996      4.11152      6.22548         0.002570      0.000091     -0.001275
O	      6.20911      4.11181      8.28132        -0.009266     -0.003553     -0.038869
O	      8.25200      4.10909     10.36819         0.002116      0.001213      0.003625
O	     10.28760      6.16765     14.55528         0.006940      0.000715     -0.033459
O	     12.50212      6.16780     16.49082         0.014512     -0.002042     -0.133615
O	      6.16725      6.16743     10.36965        -0.044687      0.000071     -0.028412
O	      8.22849      6.16734     12.45010         0.033547     -0.000221     -0.026610
