# total energy = -198.71014685 eV
 
CRYSTAL
PRIMVEC
-0.143588 26.938845 26.947838 
2.083002 2.061873 4.145284 
2.055451 10.366122 8.275848 
PRIMCOORD
26 1
Li	      3.89558     18.75806     18.76720         0.005884      0.020542      0.000139
Li	      1.93540     18.58179     16.64975        -0.012229      0.008799     -0.004582
Li	      1.96581     20.54804     18.69254         0.014481     -0.035265      0.006052
Li	      2.02852     18.82249     20.65467        -0.011854      0.034023     -0.027890
Li	      2.05596     20.79854     22.73234         0.011715     -0.006454      0.016557
Li	      0.09279     20.60859     20.62621        -0.015027     -0.021924      0.027657
Ti	     -0.08069     26.88380     26.94894         0.026248     -0.031114      0.003450
Ti	      4.05721     14.54935     14.50536         0.012386      0.023197     -0.034177
Ti	      2.13518      6.30125      8.30777        -0.004650      0.074116     -0.029926
Ti	      0.02701     12.35471     12.37161        -0.038609     -0.258449     -0.042318
Ti	      3.97116     27.00410     26.99350         0.026838      0.235745      0.028582
Ti	      3.94343     35.18789     35.21317         0.011129     -0.051207      0.039412
Ti	     -0.08608     24.82325     24.85502        -0.017628     -0.027972      0.031839
O	      1.88247     28.94451     29.04539        -0.020179     -0.018217      0.029214
O	      1.98532     31.02319     31.04854        -0.014546     -0.017842     -0.024991
O	      2.06899      6.20971      6.20926        -0.000188      0.000444      0.008701
O	      1.97408      8.31779      8.34260         0.009674      0.013955      0.013217
O	      2.10319     10.44000     10.33033         0.002151      0.013910     -0.019418
O	      2.07615     12.47212     12.48213        -0.025027     -0.012980      0.000738
O	      1.98131     14.54560     14.48078        -0.000579     -0.005914      0.022383
O	      2.07660     16.49963     16.63708        -0.007048     -0.031840      0.039429
O	      1.97245     18.51504     18.69631        -0.014242     -0.212035     -0.016695
O	      2.03322     20.85662     20.66785         0.013120      0.236573      0.006141
O	      1.93168     22.85760     22.72747         0.022391      0.028401     -0.042808
O	      2.00962     24.83254     24.89266        -0.002208      0.002807     -0.021190
O	      1.95508     26.94683     26.86395         0.027996      0.038701     -0.009515
