# total energy = -198.43900005 eV
 
CRYSTAL
PRIMVEC
0.001137 2.063270 2.062740 
26.684946 -0.199318 27.030375 
14.404620 2.023341 12.424428 
PRIMCOORD
26 1
Li	     26.67535     -0.17268     27.00411         0.014810      0.005179     -0.003056
Li	      1.93764      0.09140      1.97395         0.013402      0.005744     -0.006345
Li	     20.46681      1.93652     18.70395         0.001485     -0.001799      0.002518
Li	     18.56679      1.96152     20.74028        -0.001017      0.003903     -0.003474
Li	     37.09817      3.80835     37.46782        -0.007857     -0.004303      0.006569
Li	     39.04584      3.87342     39.46740        -0.016103      0.000454     -0.002406
Ti	      4.18621      2.09566      6.16003        -0.010442     -0.006955      0.004442
Ti	     22.62914      3.94950     22.87511         0.011119      0.016917      0.006015
Ti	     24.55769      1.96806     22.79900        -0.059849      0.020300     -0.037428
Ti	     26.71961      1.93088     24.90033        -0.019415     -0.010495      0.011086
Ti	     14.47793      1.93280     16.64168         0.060246     -0.045574      0.063147
Ti	     16.40703     -0.05033     16.56812        -0.007023     -0.022008     -0.001939
Ti	     34.84815      1.80278     33.28353         0.001348      0.007361     -0.003791
O	     28.72302      1.90017     29.05851         0.050452      0.074156     -0.067292
O	     30.88251      1.92582     31.09889         0.013386     -0.001636      0.004885
O	     32.85974      1.84942     33.23721        -0.005155      0.002459     -0.004055
O	      8.15232      1.97289      8.34463        -0.011354      0.001549     -0.006678
O	     10.31245      1.99966     10.38316        -0.037651     -0.073632      0.067340
O	     12.28811      1.95500     12.49217        -0.024446     -0.040410      0.043476
O	     14.32453      1.95714     14.55627        -0.068268     -0.001499     -0.000635
O	     16.54433      2.06521     16.51528         0.008481     -0.023020     -0.000998
O	     18.50207      2.04992     18.59171         0.008390      0.024336     -0.002044
O	     20.53301      1.84810     20.85231        -0.016304     -0.017006     -0.004912
O	     22.49082      1.83437     22.92757         0.006167      0.019063      0.002284
O	     24.71061      1.94279     24.88531         0.078431      0.014251     -0.013330
O	     26.74803      1.94531     26.94803         0.017168      0.052665     -0.053378
