# total energy = -198.37132455 eV
 
CRYSTAL
PRIMVEC
0.000072 2.084299 2.083698 
27.048465 -0.187728 27.276267 
12.485399 2.028234 10.474782 
PRIMCOORD
26 1
Li	     27.04481     -0.17483     27.26340        -0.005680     -0.010925      0.012434
Li	     22.88680      1.94380     20.97891         0.006107      0.012110     -0.013544
Li	     27.13194      3.91048     27.34847         0.021542     -0.013355      0.010601
Li	     28.89156      1.90590     27.26894        -0.004680     -0.029319      0.028980
Li	     21.04050      1.94976     23.05967         0.007182      0.027197     -0.030163
Li	     22.80099     -0.05514     22.97788        -0.022976      0.009188     -0.009477
Ti	      2.19689      2.04448      4.20660         0.006800      0.021028     -0.022418
Ti	      4.10636      0.01399      4.15572        -0.022975      0.029145     -0.037027
Ti	     18.77606      4.02867     18.89350         0.035723     -0.041943      0.045861
Ti	     20.68689      1.99637     18.84324        -0.012350     -0.008270      0.013165
Ti	     24.87738      1.92826     23.07835        -0.304239      0.002578     -0.003252
Ti	     31.20977      1.89941     29.35798        -0.007333      0.006229     -0.004912
Ti	     25.05473      1.92600     27.24706         0.303303     -0.001517      0.005510
O	     29.11861      1.83127     29.42567         0.011239     -0.020578      0.016346
O	     31.41472      1.90357     31.43879        -0.005291     -0.017172      0.015422
O	      6.20882      1.98106      6.35447        -0.021731     -0.006437      0.013972
O	      8.37107      2.05637      8.36357         0.026071     -0.007399      0.004546
O	     10.32048      2.10666     10.39757        -0.010359      0.022421     -0.023539
O	     12.56297      1.93561     12.65137         0.009429     -0.024167      0.022806
O	     14.51176      1.98505     14.68589        -0.026084      0.004273      0.003444
O	     16.67530      2.06044     16.69549         0.015926      0.014008     -0.018043
O	     18.51700      1.95147     18.88635         0.011428      0.015603     -0.012745
O	     20.81455      2.02222     20.90051        -0.009812      0.020068     -0.018950
O	     23.02774      1.94457     23.06191         0.305951      0.004486     -0.005498
O	     24.96552      1.92706     25.16286         0.002057     -0.002083      0.002449
O	     26.90424      1.90979     27.26424        -0.309248     -0.005169      0.004035
