# total energy = -216.46177590 eV
 
CRYSTAL
PRIMVEC
-0.051007 14.626446 14.603749 
4.191377 4.167238 8.342253 
4.162892 10.426323 10.437894 
PRIMCOORD
28 1
Li	      8.28135     14.78539     18.92226        -0.011281     -0.015023     -0.001430
Li	      0.01998      1.98777      1.99122         0.000850     -0.003860     -0.016072
Li	      6.18372     12.49018     14.63758         0.012664      0.004908     -0.007030
Li	      2.13991      6.26853      8.40360        -0.003168     -0.025943      0.005513
Li	      0.11208      8.24631      8.28671        -0.004985      0.000616      0.008545
Li	      2.01123     10.53176     12.47363         0.021375     -0.019892      0.003734
Ti	      2.12158     14.64565     16.62753         0.008290      0.086689     -0.055072
Ti	      4.03885     14.52473     14.59047        -0.031911     -0.031989      0.020042
Ti	      2.18409      4.18597      6.23649         0.008372      0.023285      0.044220
Ti	      4.08524     16.68089     16.74417        -0.039356      0.008246      0.018362
Ti	      6.25914     18.74387     20.93752        -0.067989      0.017559      0.066767
Ti	      8.26835     25.03638     29.19704         0.018578     -0.035126     -0.024313
Ti	      8.27965     27.13481     31.27941        -0.025698      0.006456     -0.069242
Ti	      2.10414     12.56395     14.61166         0.041755     -0.010236      0.012831
O	      2.05233     16.70388     16.69449         0.046401     -0.017214     -0.011569
O	      4.13387     16.70051     18.80409         0.010323      0.002667      0.076702
O	      2.02365     18.78040     18.79704        -0.018072     -0.045780     -0.005517
O	      4.17395     18.78522     20.86717         0.006359      0.002377     -0.003636
O	      6.22358     10.45021     14.59914         0.005564      0.018988      0.014435
O	      4.10823     20.96212     22.87512        -0.006770      0.068567     -0.000089
O	      2.08881      8.36363      8.39783         0.064080     -0.005274     -0.023281
O	      4.17572      8.34574     10.42115        -0.026171     -0.024829     -0.013942
O	      6.23968     14.58705     18.69948        -0.021208     -0.008347     -0.006853
O	      4.24019     10.35394     12.58603         0.046932     -0.008738     -0.021405
O	      2.04251     12.52238     12.54742        -0.047541      0.011336      0.010156
O	      4.14523     12.48872     14.60383        -0.008410      0.019652      0.004789
O	      6.12983     18.87487     22.95099         0.011467      0.012043      0.000742
O	      4.22038     14.51811     16.65641         0.009548     -0.031140     -0.027388
