# total energy = -215.48310883 eV
 
CRYSTAL
PRIMVEC
0.005184 14.587676 14.556246 
4.215461 10.421505 14.556093 
4.215448 10.421364 10.397303 
PRIMCOORD
28 1
Li	      4.42862     12.56494     16.64004         0.006787      0.003079     -0.000806
Li	      2.16469     16.78351     18.71706         0.006997     -0.002576      0.000242
Li	      6.40332     29.10387     31.19369        -0.023292     -0.026222     -0.000091
Li	      6.29124     16.69683     18.71674         0.007826     -0.002428      0.000797
Li	      4.09611     18.68505     18.71691        -0.042913      0.003861      0.000603
Li	      6.22468     18.66663     20.79579         0.006830      0.021454      0.000733
Ti	      0.11362     14.54975     14.56352         0.012634     -0.015837     -0.026510
Ti	      6.27532     24.98049     27.03239         0.000696     -0.003391      0.023572
Ti	      4.37138     14.62247     18.71787         0.382284      0.021536     -0.001677
Ti	      4.29751     16.69117     20.79665        -0.037067     -0.043411     -0.003523
Ti	      4.12030     20.72526     20.79672         0.073542      0.013720     -0.004210
Ti	      6.19162     20.83574     22.87625        -0.050119     -0.072095      0.004523
Ti	      4.21483     22.98730     27.03349        -0.047130     -0.013091      0.006590
Ti	      2.05723     12.56438     14.56088         0.029848     -0.025334     -0.007638
O	      2.28946     16.56222     16.63735         0.109826     -0.060850     -0.000554
O	      4.26646     16.68606     18.71687        -0.004657     -0.012452      0.001962
O	      1.97625     18.72767     18.71698        -0.383492     -0.000260      0.000234
O	      4.20391     18.76855     20.79625        -0.002438      0.098025      0.000798
O	      2.07228      6.23489      6.24015        -0.099581      0.014344     -0.000358
O	      4.11788     20.82619     22.87544        -0.000724      0.005936      0.003174
O	      6.39804     18.90834     22.87515         0.059256      0.131366      0.002002
O	      4.10252     22.86049     24.95392        -0.022633      0.006674      0.006201
O	      6.33793     20.85155     24.95579         0.064177     -0.008339      0.002959
O	      4.14069     10.52727     12.48333        -0.013494      0.024208     -0.006834
O	      2.18321     12.47389     12.48176         0.002590     -0.040365     -0.004636
O	      4.14381     12.50621     14.56085        -0.023647     -0.028953      0.000187
O	      6.42704     25.10674     29.11281        -0.019872      0.003379      0.003789
O	      4.18918     14.57081     16.63810         0.007765      0.008022     -0.001526
