# total energy = -91.94308152 eV
 
CRYSTAL
PRIMVEC
0.000008 2.080595 2.080686 
4.089189 -2.129603 2.129683 
4.023390 6.324588 -6.324766 
PRIMCOORD
16 1
Li	      4.09656      4.25116     -0.09129        -0.020554      0.018272     -0.018806
Li	      6.03809      6.18817     -4.10876        -0.010979     -0.011955      0.011584
Li	      4.07593      2.16767      1.99214        -0.014275     -0.007775      0.007882
Li	      3.97169      6.13874     -1.97874         0.012441     -0.017535      0.016485
Mn	      8.10552      6.27126     -2.11134        -0.024537      0.010801     -0.011492
Mn	      2.13117      2.11697     -0.03779         0.032013     -0.007419      0.007640
Ni	      5.99576      4.15587     -2.07652         0.009997     -0.013215      0.013285
Ni	      6.10907      2.13180     -0.05262        -0.062658     -0.056494      0.057553
O	      6.23155      6.26146     -2.10144         0.090541      0.079035     -0.079214
O	      6.08195      4.15770      0.00219         0.009772      0.013176     -0.012987
O	      4.06301      6.46718     -4.38801         0.064224      0.042133     -0.042095
O	      1.98826      4.10198      0.05771         0.008547     -0.049925      0.049283
O	      4.00803      4.20742     -2.12811        -0.018250     -0.001356      0.001751
O	      1.97524      2.18928      1.97063        -0.004003      0.015735     -0.015171
O	      3.97245      2.04335      0.03580        -0.081044      0.008894     -0.008416
O	      4.16032     -0.15741      2.23688         0.008766     -0.022372      0.022718
