# total energy = -216.59510935 eV
 
CRYSTAL
PRIMVEC
-0.032543 4.194386 4.195877 
14.507197 -0.039946 14.611553 
8.263288 4.156291 8.364532 
PRIMCOORD
28 1
Li	     14.61546      4.07474     18.72052        -0.005982     -0.006879      0.004556
Li	     16.52662      4.15645     16.81566         0.019052     -0.007932      0.029992
Li	     12.45557      4.15583     16.67436        -0.009593     -0.012795      0.026536
Li	     10.17439      6.32738     12.63450         0.006462      0.007650     -0.008173
Li	     12.33533      6.24558     14.68085         0.011826      0.015848     -0.027285
Li	      8.29601      2.05222     10.34281        -0.020324      0.005349     -0.027244
Ti	     10.31592      4.19773     10.49761         0.008843     -0.051179     -0.025270
Ti	      4.14012      4.30789      8.30355        -0.106867      0.024150     -0.071261
Ti	      6.26920      4.23508     10.39608         0.024767     -0.051719      0.016267
Ti	     18.60093      4.16310     18.84680        -0.107014     -0.006151     -0.001268
Ti	     14.50553      2.01014     16.66122         0.010285      0.054272      0.024613
Ti	      6.22184      2.04582      8.31369         0.107195     -0.002550     -0.002980
Ti	     18.52178      6.16749     20.95811        -0.033732      0.050530     -0.002600
Ti	     20.64936      6.09310     23.05215         0.130565     -0.016024      0.074230
O	     16.55967      2.05905     16.73277         0.034260     -0.053164     -0.013862
O	      4.06926      2.16126      4.24836         0.044302     -0.018456     -0.041888
O	      6.14656      2.13188      6.28355         0.043911     -0.041901     -0.015438
O	      8.18198      6.24282     12.43590        -0.091034     -0.025781      0.000769
O	     10.34815      2.06407     10.51260        -0.015137     -0.042953     -0.036898
O	     12.38349      2.09832     12.57445         0.005201      0.025258     -0.004558
O	     14.49033      6.23110     18.75902         0.005703      0.030953     -0.019996
O	     16.60780      4.16042     18.91989         0.095448      0.016675     -0.007496
O	      4.16963      4.11708      6.26512        -0.058508      0.026651      0.011587
O	      6.24746      4.08658      8.29873        -0.056187      0.019447      0.049440
O	      8.26377      4.14821     10.42644        -0.043026      0.057062      0.013388
O	     10.30068      4.17117     12.59492        -0.020520     -0.026661      0.035045
O	     12.43837      4.10914     14.58511         0.006675     -0.024508      0.005028
O	     14.47481      4.14349     16.64777         0.013428      0.054807      0.014767
