# total energy = -216.72078576 eV
 
CRYSTAL
PRIMVEC
0.050799 14.407452 14.483567 
2.096630 2.046988 4.156433 
4.182016 6.207524 2.050789 
PRIMCOORD
28 1
Li	      4.12282      6.19826      2.11422        -0.010497     -0.017786      0.008024
Li	      4.21746     10.25033      6.29314        -0.008023     -0.018113     -0.006588
Li	      4.17735      8.31266      8.17915         0.009939      0.015507      0.006294
Li	      4.27113     12.36373     12.35876         0.012022      0.019509     -0.008410
Li	      2.12040     12.36396     10.39175         0.014221      0.012650     -0.016094
Li	      2.14363     14.39801     16.51455        -0.017491     -0.009458      0.015164
Ti	      4.19266     18.52045     18.63937        -0.016793     -0.022832      0.010366
Ti	      2.17958      4.12853      6.16741         0.017031      0.006815     -0.027210
Ti	      2.12761      4.09284      2.08374         0.011149     -0.001752      0.073766
Ti	      2.08563      8.26187     10.33860        -0.004288      0.002046     -0.080087
Ti	      2.03273      8.22632      6.25428        -0.011631     -0.011080      0.023953
Ti	      0.07091      8.24099      8.26504         0.016035      0.025730     -0.014043
Ti	      2.15360     12.33792     14.47194         0.014745      0.020418      0.014334
Ti	      2.10969     14.42483     12.43386        -0.023297     -0.013119     -0.009985
O	      2.18033     16.39478     16.61794        -0.019033      0.015455     -0.003237
O	      4.25093     18.57698     16.50483        -0.019575     -0.019837      0.005629
O	      2.08114      4.11789      4.13350         0.016141     -0.010387      0.010533
O	      4.18243      6.19849      4.16522        -0.004777     -0.030708      0.021133
O	      2.10658      6.17745      6.21066         0.001207     -0.002434      0.000791
O	      4.13421      8.22126      6.14105        -0.006720      0.002008     -0.000052
O	      2.13165      8.23706      8.28811        -0.013177      0.007120     -0.009073
O	      4.26091     10.34081      8.33086         0.005420     -0.003144      0.003863
O	      2.08252     10.36784     10.28658         0.026021     -0.014743      0.005432
O	      4.21218     12.36379     10.30751         0.006198      0.026977     -0.018135
O	      2.13382     12.33038     12.41663        -0.015354     -0.010505      0.011808
O	      4.19493     14.39368     12.45040         0.013747      0.015985     -0.001067
O	      2.12979     14.43158     14.48954         0.011684      0.015685     -0.016281
O	      4.22292     16.48492     14.47848        -0.004904     -0.000009     -0.000830
