# total energy = -234.55745769 eV
 
CRYSTAL
PRIMVEC
-0.044542 6.205834 6.229988 
10.451254 -0.091236 10.401833 
6.255718 4.104113 6.219304 
PRIMCOORD
30 1
Li	     10.31287      2.07794     12.44281        -0.008390     -0.011493      0.001199
Li	     12.59155      6.02132     14.59765        -0.007047      0.016607     -0.016449
Li	     14.47526      6.06092     16.69251        -0.007780     -0.004114     -0.004488
Li	      0.04446      4.08578      4.13778        -0.004275      0.030358      0.017438
Li	      2.00961      4.26021      6.15549         0.001929     -0.015142     -0.016465
Li	      8.48516      3.96362     12.50171        -0.009665     -0.001260     -0.004896
Ti	     10.38920      6.11916     16.58182         0.003328     -0.018662     -0.102898
Ti	      8.30649      4.13863      8.39452        -0.003471     -0.021880      0.001632
Ti	     10.32318      4.10024     10.32365        -0.100785      0.001014     -0.012335
Ti	      6.32249     -0.04306      6.30081         0.015987      0.009986      0.038807
Ti	      8.37780      6.18836     14.49402         0.027367      0.029332      0.048794
Ti	      8.31620      6.07533     10.29756         0.024968      0.001097     -0.007043
Ti	     10.39667      6.18998     12.59031        -0.029818      0.014267      0.070814
Ti	     10.36055      8.11024     14.50772        -0.036967     -0.008024     -0.025168
Ti	      6.35344      4.12471     10.35731         0.098497     -0.039478      0.024628
O	     12.48608      8.20917     18.66618        -0.010323     -0.008691      0.006458
O	      4.16424      2.06892      4.15756         0.004942     -0.022025      0.000595
O	      6.23589      2.01805      6.25749        -0.006039      0.008656     -0.001671
O	      8.36554      2.03105      8.32256         0.006323     -0.002380     -0.006542
O	     10.44228      8.21241     16.61536        -0.010131      0.011058      0.001638
O	     12.56289      4.01141     14.52819        -0.003510      0.002601     -0.054351
O	      4.12422      4.16277      6.19110         0.028113     -0.009911     -0.007362
O	      6.20692      4.11620      8.28416         0.002409      0.006812     -0.008249
O	      8.35126      3.94869     10.51457         0.023528      0.026824     -0.011297
O	     10.51637      4.09326     12.40205         0.027497      0.003310     -0.020929
O	     12.43171      6.16340     16.65711        -0.024548      0.007270     -0.000798
O	      4.09435      6.15769      8.32923         0.011127     -0.006830      0.059635
O	      6.19019      6.20155     10.36258        -0.008670      0.006466     -0.004653
O	      8.32635      6.13169     12.42597        -0.020452      0.007016      0.006746
O	     10.50378      6.00412     14.58841         0.015857     -0.012782      0.027209
