# total energy = -157.10544471 eV
 
CRYSTAL
PRIMVEC
-0.106886 23.573183 22.323742 
2.056726 2.140240 4.051702 
2.027276 8.554916 6.095890 
PRIMCOORD
22 1
Li	      4.05915     10.68621     10.12477        -0.011855     -0.033289      0.022158
Li	      2.02398     10.67420      8.15419         0.015706      0.022722      0.011064
Li	      4.01998     17.14187     16.24417        -0.035241     -0.019065      0.008732
Li	     -0.00290      8.55942      8.10943         0.033223      0.016842     -0.005864
Li	      1.99156     15.02409     16.19910        -0.016484     -0.021002     -0.007311
Li	     -0.04101     15.01364     14.22820         0.008620      0.031197     -0.018376
Li	      1.93980     27.83977     24.36086        -0.000443      0.002582      0.002084
Ti	      1.99708     12.84015     10.18726        -0.048269      0.029999      0.018620
Ti	      2.01900     12.85990     14.16743         0.045854     -0.029336     -0.025128
Ti	      1.98828     19.22259     20.19517         0.058635     -0.090094     -0.069861
Ti	      1.92047     30.05093     26.48294        -0.051604      0.091305      0.065655
O	      1.93881     25.54627     24.29290         0.013508     -0.166517     -0.074991
O	      1.94340     27.94807     26.37316        -0.006141      0.013555      0.011706
O	      2.07070      6.45607      6.09237        -0.028022     -0.005488     -0.093848
O	      2.13636      8.41033      8.13555         0.068971     -0.050179      0.013105
O	      1.92032     10.83482     10.15507        -0.068338      0.067575     -0.007384
O	      2.00795     12.84997     12.17690        -0.000860     -0.000325     -0.003272
O	      2.09548     14.86508     14.19821         0.070961     -0.062893      0.012457
O	      1.87934     17.29048     16.21830        -0.067782      0.047576     -0.013311
O	      1.94548     19.24458     18.26147         0.026749      0.002700      0.092616
O	      1.96530     21.32541     20.30451         0.008917     -0.014601     -0.009990
O	      1.97050     23.72810     22.38547        -0.016105      0.166739      0.071137
