# total energy = -157.18075741 eV
 
CRYSTAL
PRIMVEC
0.184741 22.887421 23.489062 
2.074659 2.098405 4.269688 
2.111960 10.389412 8.572536 
PRIMCOORD
22 1
Li	      0.19787     22.84031     23.44866        -0.003748     -0.038801     -0.003014
Li	      4.19382     14.61255     15.01782         0.003276      0.040412      0.003870
Li	      2.19325     16.60404     14.99066        -0.009404     -0.019053      0.015977
Li	      2.10366     10.45707     12.80852        -0.014363      0.019561      0.002421
Li	      0.10202     12.48285     12.81166         0.001196      0.000659      0.003249
Li	      0.17538     16.60852     17.08539         0.013607     -0.020802     -0.001640
Li	      2.19781     20.84995     23.48399         0.007088      0.018273     -0.022548
Ti	      0.08019      4.14771      4.24780         0.011431     -0.000775     -0.066175
Ti	      2.28464     20.70746     19.26182         0.101051     -0.043460      0.016760
Ti	      2.10639     16.74656     19.20396        -0.106694      0.040847     -0.025270
Ti	      4.31110     33.30664     34.21850        -0.009207      0.002592      0.067871
O	      2.22212     24.88210     25.50367         0.024964     -0.041238     -0.040270
O	      2.27162     27.07152     27.75818         0.057928      0.001182      0.003540
O	      2.07012      6.31407      6.56534         0.020835      0.044716      0.104276
O	      2.13698      8.25318      8.41142        -0.027216     -0.050157     -0.109128
O	      2.11940     10.38293     10.70802        -0.057658     -0.002681     -0.001886
O	      2.16950     12.57192     12.96148        -0.027675      0.043926      0.044539
O	      2.12434     14.50981     14.86125        -0.028580     -0.008092     -0.010811
O	      2.26518     16.63537     17.25714         0.056200     -0.000577      0.077260
O	      2.19537     18.72670     19.23254         0.001917      0.006384      0.004260
O	      2.12487     20.81836     21.20787        -0.045542      0.002118     -0.082621
O	      2.26655     22.94442     23.60358         0.030592      0.004964      0.019339
