# total energy = -156.89997496 eV
 
CRYSTAL
PRIMVEC
-0.000108 2.090390 2.088752 
21.908139 -0.211519 23.186802 
3.983336 2.090323 2.088612 
PRIMCOORD
22 1
Li	      3.98327      2.09034      2.09123         0.000145      0.001670     -0.000715
Li	      7.96849      2.00944      6.35554        -0.001720     -0.015771      0.010087
Li	      9.95811      2.02652      8.41852        -0.001741      0.037513     -0.034184
Li	     13.94098      1.98206     12.64700        -0.002237     -0.021926      0.020774
Li	     11.94825      1.99051     14.71759         0.001253      0.016073     -0.014287
Li	     15.92962     -0.14482     16.85735         0.002411     -0.032658      0.032512
Li	     17.92315     -0.12420     18.92567         0.005133      0.010294     -0.012878
Ti	      5.97586      2.06556      4.20836         0.000012     -0.000659     -0.004189
Ti	     11.92573      2.01511     10.52662        -0.052044      0.017141     -0.016461
Ti	     17.91443      1.96082     16.84168        -0.016257     -0.016475      0.015715
Ti	     19.91581     -0.18551     21.07256         0.000191      0.005578     -0.002006
O	      1.99158      2.09055      2.09171        -0.000938      0.003367     -0.002693
O	      3.98390      2.09608      4.17709        -0.001110      0.021935     -0.025252
O	      5.97622      2.18129      6.18193         0.002401      0.042154     -0.040527
O	      7.97104      1.92335      8.52247        -0.004521     -0.096947      0.095320
O	      9.96967      2.01663     10.52039         0.047657      0.003068      0.000849
O	     11.95406      2.11509     12.51100        -0.002476      0.100030     -0.102605
O	     13.94096      1.85685     14.85285         0.001308     -0.097403      0.097774
O	     15.93366      1.95569     16.84445         0.018805     -0.002660      0.000693
O	     17.92287      2.04793     18.84169         0.004597      0.092070     -0.090736
O	     19.91524      1.78935     21.18721        -0.003474     -0.045667      0.047378
O	     21.90722      1.87366     23.19267         0.002606     -0.020727      0.025433
