# total energy = -153.98695047 eV
 
CRYSTAL
PRIMVEC
0.000239 2.101455 2.101628 
22.823565 -0.766561 23.885231 
8.266768 1.928729 6.478106 
PRIMCOORD
22 1
Li	     22.60679     -0.49016     23.61075         0.033618      0.004798      0.000681
Li	      4.37275      1.98570      6.42496        -0.044419     -0.003563      0.004654
Li	      6.31527      2.20648      8.30313         0.003422     -0.028322      0.028976
Li	     18.64135      3.67989     19.43635        -0.003954      0.001584     -0.000333
Li	     22.69960      1.12649     21.99538        -0.000014      0.030036     -0.031594
Li	     24.64173      1.35215     23.87656         0.048981      0.004635     -0.002659
Li	     29.23130      3.05727     30.57259        -0.028987     -0.005649      0.005304
Ti	     10.28179      1.84409      8.66396        -0.043549     -0.012209      0.010722
Ti	     16.38584      1.56290     15.24811        -0.231179     -0.097470      0.101495
Ti	     12.62888      1.76718     15.04632         0.242976      0.094122     -0.093378
Ti	     18.73406      1.48749     21.63162         0.029915      0.008138     -0.009755
O	     24.96818      1.18157     26.13832         0.067408     -0.050246      0.060873
O	     26.86983      1.38213     28.04153        -0.060559      0.053946     -0.053358
O	      6.16568      1.93988      6.46884         0.052327      0.006625     -0.008661
O	      8.35705      1.68210      8.82505         0.114493     -0.042360      0.042621
O	     10.33522      1.91681     10.69297        -0.030861      0.049096     -0.050301
O	     12.36465      1.58292     13.12679         0.053601     -0.123526      0.131211
O	     14.50825      1.66501     15.14728        -0.012779     -0.001174     -0.001731
O	     16.65078      1.74693     17.16871        -0.052227      0.130317     -0.137066
O	     18.68048      1.41409     19.60281         0.030529     -0.048602      0.042394
O	     20.65791      1.64880     21.47057        -0.105110      0.036634     -0.042639
O	     22.84955      1.39334     23.82942        -0.063632     -0.006810      0.002543
