# total energy = -157.10280665 eV
 
CRYSTAL
PRIMVEC
0.000063 2.076460 2.076924 
22.808543 -0.330158 23.176830 
16.572169 1.880559 14.734758 
PRIMCOORD
22 1
Li	     18.63686      1.77141     16.92023         0.008448     -0.011785      0.011874
Li	      4.27450      2.01365      6.29472         0.011300     -0.008952      0.009694
Li	     22.66470      1.79719     21.04802        -0.002930      0.005049     -0.003294
Li	      8.30964      2.03316     10.42860        -0.012129      0.017923     -0.018391
Li	     28.98458      1.67739     27.40000        -0.000120     -0.004056      0.004501
Li	     16.59171      1.83483     18.93290        -0.001848      0.003460     -0.000560
Li	     20.76762      1.80213     23.12058         0.003415     -0.003017      0.000691
Ti	     22.92441      1.76719     25.23388         0.112416      0.074829     -0.076210
Ti	     26.82937      1.70956     25.28959        -0.112318     -0.062950      0.068190
Ti	     30.94359      1.64094     29.51375        -0.424527     -0.053363      0.049851
Ti	     18.80909      1.83688     21.00951         0.421366      0.056532     -0.056482
O	     24.87748      1.74014     25.26027        -0.002151     -0.004279      0.006037
O	     26.93400      1.81153     27.26481        -0.015278      0.110878     -0.106807
O	     29.12203      1.69181     29.46237         0.407954      0.000257      0.000455
O	     31.13376      1.74325     31.48758        -0.007824      0.076129     -0.076929
O	     10.37767      1.86105     10.60038         0.017662     -0.052756      0.047948
O	     12.34420      2.00469     12.53314        -0.048832      0.040322     -0.039096
O	     14.60110      1.80188     14.81375         0.041397     -0.031656      0.035862
O	     16.56871      1.94809     16.74514        -0.011472      0.038682     -0.044693
O	     18.62142      1.73677     19.03297         0.004776     -0.100130      0.097485
O	     20.63048      1.78466     21.06171        -0.409765      0.006887     -0.008996
O	     22.81851      1.66419     23.26006         0.020459     -0.098004      0.098869
