# total energy = -153.88288152 eV
 
CRYSTAL
PRIMVEC
-0.000072 2.096504 2.096554 
22.132009 -0.191944 23.253378 
22.132156 1.939534 21.121846 
PRIMCOORD
22 1
Li	     22.13197      4.03469     23.21833        -0.013067      0.002826      0.001026
Li	      4.24816      2.05742      6.32799        -0.023009      0.001723      0.000381
Li	     28.09325      1.88225     27.46700        -0.067750      0.002620     -0.002397
Li	     10.21749      2.00516     12.66938         0.049579      0.003841     -0.000465
Li	     34.04789      1.83481     33.80815        -0.021883     -0.006644     -0.003346
Li	     16.17303      1.95529     19.00513         0.067907     -0.000379      0.001416
Li	     40.01702      1.78282     40.14256         0.017205     -0.000243      0.003619
Ti	      2.03877      2.07801      4.21399         0.455122     -0.000315     -0.003338
Ti	     30.18249      3.96114     31.67373         0.195609     -0.006441     -0.002485
Ti	     36.21486      3.90852     38.01248        -0.153253     -0.001599     -0.002772
Ti	     42.22572      1.76616     42.25866        -0.510270     -0.002414      0.003626
O	     24.08378      1.90374     25.35298        -0.028278     -0.000267     -0.000425
O	     25.96025      1.88546     27.46789        -0.446912      0.002505     -0.001368
O	     28.29146      1.86727     29.58271         0.319366      0.002159     -0.001657
O	     30.16318      1.84899     31.69402         0.024941      0.003134      0.006549
O	     32.03551      1.83311     33.81085        -0.381568     -0.000830     -0.004251
O	     12.22971      2.00646     12.66691         0.427658      0.003765      0.000577
O	     14.10236      1.98813     14.77838        -0.006149      0.006198      0.003842
O	     15.97449      1.97277     16.89250        -0.324006     -0.001258      0.001806
O	     18.30397      1.95815     19.00568         0.452661     -0.005083      0.000578
O	     20.18032      1.94034     21.11991        -0.002775     -0.001223      0.000804
O	     22.13191      1.92244     23.23696        -0.031127     -0.002077     -0.001720
