# total energy = -174.78745558 eV
 
CRYSTAL
PRIMVEC
-0.128434 12.627932 12.235255 
4.169046 8.347490 12.262914 
4.177416 6.258429 6.130156 
PRIMCOORD
24 1
Li	      4.11209      8.46097     12.23479        -0.012620     -0.010855      0.007281
Li	      0.03228      2.11723      2.07335         0.003697     -0.004315     -0.000760
Li	      6.02984     21.05773     22.46479        -0.004042      0.008934      0.008215
Li	      0.14593      4.02311      4.07424         0.039229     -0.033759     -0.003802
Li	      6.12409     10.49902     12.24658         0.001691      0.019978     -0.012542
Li	      6.22499     12.47581     14.31404         0.001746     -0.004575      0.005698
Li	      2.14389      8.28523     10.19946         0.000578     -0.004487     -0.003961
Ti	      6.19636     18.88453     20.49088        -0.026789      0.018614     -0.023092
Ti	      4.11921     14.65996     18.31370         0.054808      0.008751      0.021423
Ti	      4.06483     14.66185     14.35106        -0.012981      0.041217     -0.055624
Ti	      8.09566     25.24191     28.59417        -0.249020      0.203677      0.026667
Ti	      2.07837     10.47270     12.18232         0.046836     -0.057647      0.044783
O	      2.08167     14.60758     14.24819         0.084005     -0.101708      0.061215
O	      4.12079     14.71012     16.32086        -0.004847     -0.004918     -0.004199
O	      2.19917      4.15966      4.09202         0.257119      0.023796      0.003257
O	      4.13731     16.76141     18.38834        -0.005979      0.000305     -0.065305
O	      6.10963     14.75062     18.40775        -0.068522      0.092828     -0.038301
O	      4.13482     18.82523     20.44282         0.032376     -0.011420      0.080942
O	      6.11634     16.82821     20.36369         0.012701      0.026537     -0.012207
O	      4.17401      8.23003     10.22337        -0.023076     -0.205040      0.007531
O	      1.95277     10.47506     10.20521         0.016721      0.012593     -0.053608
O	      4.05514     10.54717     12.24228        -0.124102      0.025525     -0.011903
O	      2.08302     12.51932     12.30052         0.031105     -0.037833      0.010852
O	      4.06537     12.60053     14.27533        -0.050632     -0.006198      0.007441
