# total energy = -174.69632656 eV
 
CRYSTAL
PRIMVEC
0.110007 8.152892 8.469293 
6.476875 4.076368 10.669290 
6.476880 8.152843 10.669279 
PRIMCOORD
24 1
Li	      6.36036      4.07515     10.54585        -0.015888     -0.000866     -0.003498
Li	     10.74085     16.30388     23.44261         0.024708      0.001634      0.021907
Li	      8.76863     10.18992     15.11702         0.027465     -0.000713      0.029973
Li	      4.33936     10.18977     14.79261        -0.010428     -0.000214     -0.006009
Li	      2.16789      4.07502      6.23084        -0.013698     -0.000189      0.014655
Li	      0.14827      6.11302      6.40104         0.001404      0.001162      0.002575
Li	      4.47661      6.11343     10.69977         0.013037      0.000363     -0.004025
Ti	      8.78590     16.30462     21.37462         0.166095     -0.001460      0.053666
Ti	      6.36077     10.18972     12.78680        -0.352304     -0.000901     -0.015573
Ti	      6.51621     12.22787     14.92133        -0.027016      0.000130      0.058735
Ti	      4.37349      4.07513      8.47790         0.049691     -0.001035      0.005832
Ti	      2.20829      6.11317      8.34100        -0.016187      0.001746     -0.357261
O	      8.67004     14.26629     21.22323         0.019551      0.000422      0.029411
O	      4.52175     10.18947     12.76979         0.342761      0.001335     -0.010793
O	      6.58325     10.18971     14.86084        -0.043962     -0.001182     -0.037912
O	      8.59103      8.15144     14.85698        -0.073721      0.000613     -0.139628
O	      4.52272     12.22791     14.98324         0.104150     -0.000962      0.086790
O	      6.45623     12.22758     16.93808        -0.058603      0.001593     -0.056077
O	      8.67878     10.18978     17.17723        -0.009155     -0.001565      0.359659
O	      4.28615      6.11322      8.56067        -0.031966      0.000355     -0.044604
O	      6.71597     14.26593     19.26564         0.035418      0.001939      0.040235
O	      8.73392     12.22791     19.23309        -0.016592     -0.000845     -0.007496
O	      4.25466      8.15149     10.51891        -0.100730     -0.000217     -0.031514
O	      6.56169      8.15149     12.80653        -0.014031     -0.001143      0.010951
