# total energy = -175.00988032 eV
 
CRYSTAL
PRIMVEC
0.025090 6.227069 6.129397 
8.521272 4.129838 12.314944 
6.381639 6.216858 8.208593 
PRIMCOORD
24 1
Li	      0.05461      6.24236      6.16673         0.000800     -0.001009      0.003210
Li	      4.27857      6.21728     10.24100        -0.000761      0.000027      0.000136
Li	      8.50084      6.19287     14.31610         0.000625      0.002156     -0.001857
Li	      4.23424      2.14643      6.12491         0.004458     -0.006589     -0.014526
Li	     12.69812     14.48635     22.60651        -0.002954      0.005262     -0.010955
Li	      2.24136      4.16625      6.08417         0.000364     -0.008006      0.008511
Li	     10.67858     10.27809     16.43735        -0.004285      0.007396      0.014173
Ti	      2.17424      6.16373      8.12784        -0.001688     -0.019175     -0.127404
Ti	     12.76287     12.48748     20.56260         0.002099      0.019793      0.130469
Ti	      8.44504      8.33937     12.41682         0.054446      0.049423      0.099590
Ti	      8.53800      8.28338     16.39863         0.002514     -0.000801      0.001282
Ti	      6.46850      4.08576     10.14455        -0.051938     -0.045073     -0.095746
O	     10.72158     12.35375     20.56568         0.049536     -0.059307      0.058337
O	      4.14271      8.28033     10.16919        -0.034143      0.030475     -0.167769
O	      6.39770      8.30399     12.28679         0.023985      0.026222     -0.002214
O	      8.52710      8.26853     14.35600         0.002159      0.017012     -0.028108
O	     10.57280      8.20937     16.40540        -0.057430     -0.097233      0.010177
O	      4.33985      4.21458      6.15639         0.058020      0.102159     -0.006474
O	      6.41086     10.38375     14.33514        -0.003070     -0.014883      0.033117
O	      8.54133     10.34801     16.40463        -0.027732     -0.028143     -0.003849
O	     10.79477     10.37193     18.52184         0.034516     -0.034994      0.166524
O	      4.21629      6.29842      8.12514        -0.048566      0.058143     -0.060301
O	      6.46657      6.19806     10.30214         0.038984     -0.045575      0.051928
O	      8.44551      6.22751     12.25979        -0.039936      0.042721     -0.058250
