# total energy = -174.95869893 eV
 
CRYSTAL
PRIMVEC
-0.039319 4.127729 4.128176 
12.628056 -0.046213 12.313903 
4.209735 2.044780 2.044230 
PRIMCOORD
24 1
Li	     12.62754     -0.03711     12.30870         0.003662     -0.002573     -0.002896
Li	     14.73157      1.97407     12.33737        -0.012291     -0.002283     -0.010184
Li	     12.60855      2.02921     14.37095        -0.002085      0.009640     -0.014851
Li	      6.29250      4.10003      6.16109         0.004492      0.000012      0.001538
Li	      4.18760      2.06093      6.15531         0.003932     -0.003720      0.005189
Li	      6.29440      2.07914      8.18639        -0.006292      0.032951     -0.026130
Li	     12.60926      4.05571     12.34014         0.001872     -0.003629      0.002580
Ti	      2.10277      0.10078      1.94254         0.001019      0.055971     -0.066954
Ti	      4.17187      4.14769      8.19612        -0.000064      0.059584     -0.060516
Ti	     10.52828      1.96943      8.25828         0.006814     -0.033535      0.037906
Ti	     12.61972      1.95579     10.30857        -0.006516     -0.075324      0.064564
Ti	     14.71805      4.03933     14.39849         0.008518     -0.025343      0.025895
O	      2.07392      2.05102      2.05116         0.015251     -0.034240     -0.002729
O	      4.32835      1.97107      4.12759         0.071481     -0.093207     -0.003773
O	      6.38260      1.99261      6.10686         0.010199     -0.029721     -0.016018
O	      8.44485      1.98890      8.15599         0.019719     -0.025991     -0.024473
O	     10.54762      2.01459     10.28292         0.020533     -0.005643     -0.021779
O	     12.51925      2.02842     12.26615        -0.059391     -0.004795     -0.090313
O	      2.09629      4.12272      4.12432        -0.013538     -0.000579      0.047462
O	      4.05135      4.09179      6.24817        -0.069274      0.009899      0.103086
O	      6.20718      4.15627      8.26887        -0.004914      0.012545      0.027930
O	      8.35722      4.14883     10.31280        -0.007810      0.022900      0.012999
O	     10.45482      4.07249     12.33741        -0.038045      0.027062      0.004161
O	     12.69812      4.13620     14.37071         0.052727      0.110017      0.007306
