# total energy = -174.98378248 eV
 
CRYSTAL
PRIMVEC
0.007879 6.242417 6.236661 
8.432970 -0.108353 8.434085 
2.080698 4.161134 2.081990 
PRIMCOORD
24 1
Li	      2.14605      4.14689      2.14899        -0.005616      0.018442     -0.007490
Li	      4.18989      4.13362      4.19185        -0.000733     -0.000093      0.004441
Li	      4.15239     -0.03973      4.15489         0.005639     -0.016183      0.006377
Li	      2.13979      6.19057      4.16948        -0.023566      0.025563     -0.014791
Li	      4.21288      2.07865      6.24340         0.017282     -0.027339      0.024307
Li	      2.09335      8.27164      6.29588        -0.015889      0.026298     -0.023449
Li	      6.24850      8.31996     10.45346         0.021194     -0.025191      0.010828
Ti	      8.40674      4.07940      8.40997        -0.003498      0.011983     -0.009381
Ti	      4.19045      6.21499      6.27196         0.003999     -0.012411      0.022150
Ti	      6.37658      2.00258      8.36106        -0.053346     -0.013398      0.024728
Ti	      2.11448      4.13486      6.26761         0.022352     -0.011129      0.001610
Ti	      8.36544      8.23887     12.61251         0.036809      0.026151     -0.036006
O	      2.20220      2.09441      2.20598         0.107146     -0.012911      0.102743
O	      4.09580      2.01267      4.09791        -0.118309      0.017512     -0.114898
O	      6.29691      2.00109      6.30034         0.052516     -0.063149      0.053871
O	      8.44468      8.24020     14.67293        -0.048016      0.056410     -0.041040
O	      2.07619      4.03981      4.28359        -0.000531     -0.089882      0.086708
O	      4.10038      4.22845      6.30812        -0.116554      0.102725     -0.011781
O	      6.35782      4.04474      8.44073         0.033284     -0.036940      0.009706
O	      8.37414      4.11810     10.45540         0.007730      0.025418     -0.021744
O	      2.20520      6.12088      6.23232         0.111157     -0.091916      0.007129
O	      4.22989      6.30941      8.25710        -0.006340      0.100463     -0.099454
O	      6.36727      6.12316     10.51828         0.001802     -0.029801      0.030143
O	      8.38332      6.19799     12.53262        -0.028512      0.019379     -0.004709
