# total energy = -175.21243822 eV
 
CRYSTAL
PRIMVEC
0.029436 12.188027 12.662408 
4.135960 8.092338 12.704928 
4.104097 2.024022 2.127416 
PRIMCOORD
24 1
Li	      4.17224      8.13233     12.62884         0.000484     -0.008925     -0.018101
Li	      4.12805     10.06204     14.70466         0.009685      0.004472     -0.042293
Li	      2.14531     14.27561     16.91838        -0.007765      0.000968      0.005861
Li	      6.18195     18.22004     21.22664        -0.005646      0.003741      0.050200
Li	      6.13912      8.08669     10.66982         0.008658      0.006912      0.012448
Li	      6.16157     10.08989     12.69937         0.002342     -0.013088      0.002355
Li	      4.19033     18.28904     23.24952        -0.002096      0.003697      0.005709
Ti	      2.13961     12.25060     14.82889         0.067502      0.092327     -0.063254
Ti	      4.05776      6.05368      6.31781        -0.049222     -0.041507     -0.010755
Ti	      4.10046      8.11353      8.46480        -0.028368      0.002238      0.079585
Ti	      0.07945      8.11258      8.45021         0.024687     -0.025908      0.049639
Ti	      2.07995     10.12779     12.65231        -0.023327      0.054481     -0.076117
O	      2.04861      2.00584      2.14608        -0.004201     -0.016654     -0.017141
O	      4.17087     14.14863     16.95889         0.014052     -0.028956      0.044884
O	      6.16062     12.21359     16.86719        -0.008316      0.015612     -0.038200
O	      4.12293     16.21854     19.06745         0.023484      0.015508      0.011314
O	      6.16710     14.16553     19.02424        -0.024924      0.003701     -0.014787
O	      4.13335      6.09328      8.42234        -0.001903      0.009123      0.027352
O	      6.20180     16.22160     21.15943        -0.016718     -0.014836     -0.004656
O	      4.13421      8.16808     10.47529         0.017199      0.077924     -0.065507
O	      2.16708     10.16399     10.69027         0.079151     -0.012663      0.099525
O	      4.06582     10.12080     12.55862        -0.085629      0.004346     -0.050292
O	      2.07151     12.07735     12.81271        -0.004503     -0.120573      0.022332
O	      4.15468     12.15144     14.80964         0.015373     -0.011937     -0.010103
