# total energy = -174.88025318 eV
 
CRYSTAL
PRIMVEC
0.000042 6.391472 6.061155 
8.225359 0.003906 8.077575 
4.112733 6.391512 6.061145 
PRIMCOORD
24 1
Li	      4.11316      6.42952      6.11511         0.000844      0.040269     -0.007293
Li	      4.11324      6.42429     10.04300        -0.000359      0.009862      0.004276
Li	      4.11313      8.53879      8.09924         0.000804      0.005468      0.007534
Li	      2.05700      2.13315      3.97245        -0.000415      0.001910     -0.016831
Li	     10.28218      8.50049     14.20221         0.001280     -0.022178      0.005706
Li	      2.05700      4.28381      6.06943        -0.000116     -0.004615     -0.002826
Li	     10.28232     10.58281     16.16056         0.000025     -0.050558      0.004471
Ti	      2.05698      6.50358      8.08811        -0.001007      0.398129      0.001667
Ti	      6.16950      6.41733     12.11002         0.000914      0.023892     -0.020264
Ti	      8.22598      8.47266     12.10447         0.000719     -0.008974     -0.014459
Ti	      8.22619      4.27868     12.08163        -0.001090     -0.065619     -0.076226
Ti	      8.22588     10.60752     14.19396         0.000805     -0.120995      0.044065
O	      2.05718      8.32879      8.07616        -0.001660     -0.338229      0.007248
O	      4.11351      8.66695     10.16427         0.000021      0.080363      0.124103
O	      6.16968      8.48302     12.12361        -0.000121      0.044019      0.000520
O	      8.22634      8.65080     14.07086        -0.002396      0.059222     -0.075677
O	     10.28252      4.32218     12.10794        -0.001755     -0.042363     -0.005270
O	      4.11357      4.16982      6.06085        -0.002093      0.027535     -0.022404
O	      6.16933      4.33940      8.09856         0.003778     -0.059572      0.006217
O	      8.22578      4.24403     10.10368         0.000647      0.015789      0.014515
O	     10.28207      6.39066     14.12469         0.001895     -0.006709     -0.022509
O	      4.11305      6.29504      8.07252         0.001098      0.012690      0.026767
O	      6.16977      6.41744     10.11166        -0.002177     -0.016769      0.017644
O	      8.22583      6.39026     12.11883         0.000361      0.017434     -0.000975
