# total energy = -174.83872910 eV
 
CRYSTAL
PRIMVEC
-0.000067 2.070844 2.071001 
8.457144 -0.163077 8.446816 
10.465648 6.148056 4.206166 
PRIMCOORD
24 1
Li	     18.79437      6.03347     12.60863        -0.029226      0.017146     -0.020116
Li	     10.50076      1.94767      8.40435        -0.009449     -0.005041      0.008733
Li	     12.65285      6.02385     10.54040         0.009642      0.005223     -0.001588
Li	      4.36073      1.93935      6.34045         0.024694     -0.013541      0.017401
Li	      6.29686      1.94966      4.26397        -0.016574      0.003114     -0.002367
Li	      8.39795      6.18872      6.23899         0.013684      0.000296     -0.003732
Li	     16.80964      8.09609     12.61371        -0.002275     -0.004452      0.003714
Ti	      2.11571      2.02990      4.18328         0.008067      0.006870     -0.004241
Ti	      4.11774      2.00556      2.13645         0.017477      0.008593     -0.000409
Ti	     14.86795      6.03936     12.60083         0.460136      0.068116     -0.073171
Ti	      8.28332      1.93499      6.34885        -0.426197     -0.084485      0.086478
Ti	     10.57745      6.13215      8.36594        -0.008678     -0.015510      0.003439
O	      2.10256      2.03390      2.10944         0.148871     -0.052032      0.042250
O	     12.66749      3.88062     10.61660         0.021405     -0.049509      0.042550
O	     14.70814      5.94607     10.62245        -0.005702     -0.096513      0.096375
O	      4.20730      2.02988      4.18348        -0.089949      0.057893     -0.051235
O	      6.19293      4.16205      4.12322        -0.066014      0.019016     -0.024341
O	     16.69352      5.98426     12.65549        -0.413911      0.004069     -0.003592
O	      6.45975      1.98974      6.29435         0.366543      0.001103     -0.000533
O	      8.50286      3.97514      6.37977         0.051299     -0.016295      0.019772
O	     10.48924      6.10759      6.31897         0.090892     -0.056734      0.049429
O	      8.44463      2.02717      8.32764        -0.000940      0.107214     -0.106081
O	     10.48531      4.09359      8.33233        -0.011522      0.046805     -0.041108
O	     12.59265      6.10320      8.39226        -0.132273      0.048651     -0.037629
