# total energy = -174.30189110 eV
 
CRYSTAL
PRIMVEC
0.000186 2.096468 2.096392 
12.327569 -0.024506 12.603899 
6.206668 4.239698 2.050057 
PRIMCOORD
24 1
Li	      6.05599      4.10994      2.17922        -0.027045     -0.015138      0.017115
Li	      4.30477      4.13503      4.25066         0.024626      0.000770      0.002327
Li	      4.25732      2.21450      6.17223         0.028849      0.019419     -0.019631
Li	      6.00823      2.18914      4.10029        -0.023263     -0.003771      0.003072
Li	      6.14635      0.07054      6.22051         0.000004      0.027037     -0.027477
Li	     14.42420      4.22256     10.45517         0.000098     -0.000915     -0.000877
Li	     16.49482      6.23035     14.73523         0.003379     -0.020857      0.022373
Ti	     14.54972      4.13885     14.73035         0.457904     -0.009199      0.013112
Ti	      8.25960      4.23453      4.15271         0.012662     -0.000756      0.000723
Ti	      8.09269      2.16205      6.22453        -0.503598      0.005869     -0.003096
Ti	     10.31616      4.20554     10.46872        -0.020577      0.029783     -0.028665
Ti	     12.32545      2.09621     10.48681         0.012732     -0.037784      0.032705
O	      2.02793      2.11909      2.07474         0.008036      0.020679     -0.027150
O	     16.35963      4.20472     14.66415        -0.478471     -0.008003      0.008213
O	      3.95836      2.09914      4.19072        -0.174923     -0.000703      0.000431
O	      6.35537      4.22537      4.16050         0.163694      0.005792     -0.003864
O	      6.28090      2.09620      6.29128         0.512279      0.007488     -0.007128
O	      8.28529      4.20639      6.27732        -0.005820     -0.021007      0.013998
O	      8.28874      2.18123      8.30278         0.103054      0.019664     -0.026046
O	     10.26829      4.12236      8.45726        -0.040593     -0.070933      0.076505
O	     10.27938      2.14050     10.43737         0.071478      0.063994     -0.062958
O	     12.36181      4.16051     10.51810        -0.065393     -0.058131      0.061296
O	     12.37268      2.17921     12.49767         0.040765      0.069674     -0.072283
O	     14.35288      4.11996     12.65262        -0.099875     -0.022972      0.027307
