# total energy = -174.42436961 eV
 
CRYSTAL
PRIMVEC
-0.000227 2.083872 2.084492 
12.219559 -0.180002 12.685877 
12.202792 4.090875 8.413675 
PRIMCOORD
24 1
Li	     12.17524      3.97767      8.52828        -0.013071     -0.017814      0.013699
Li	     16.30206      3.86699     16.97383         0.004782      0.006143     -0.000771
Li	      4.10028      2.14246      6.19564         0.015856      0.004890     -0.009525
Li	     18.15932      1.92058     16.84218        -0.003949      0.023154     -0.028104
Li	      8.14527      1.96302     10.53889        -0.002937      0.002600      0.000198
Li	     10.33527      4.01655     10.56854         0.004508     -0.022651      0.026322
Li	     12.19202      2.06970     10.43439         0.001092      0.003147     -0.003103
Ti	     14.24722      4.01104     14.74632         0.008997     -0.002911      0.002092
Ti	      2.03694      2.05542      4.19670        -0.031350      0.001370     -0.000823
Ti	     18.13981      3.96812     14.78764        -0.066184     -0.036620      0.045311
Ti	      8.13770      4.09990      8.40411        -0.014755     -0.006465      0.007032
Ti	     10.35448      1.96811     12.62139         0.065495      0.043711     -0.053080
O	     14.25156      1.92485     14.74948         0.007549     -0.069594      0.052755
O	     16.24841      4.01197     14.74427         0.037330      0.004578     -0.003611
O	      3.94019      2.05448      4.19788        -0.144337      0.000598     -0.003911
O	     18.31889      4.06637     16.77424        -0.085281      0.062915     -0.072192
O	      6.13286      1.95452      6.38070         0.029428      0.006455      0.002233
O	     20.40320      3.86378     19.06292         0.007306     -0.022831      0.026212
O	      8.09123      2.07184      8.34710        -0.028220      0.029154     -0.030983
O	     10.14255      4.16185      8.34272        -0.041598     -0.009852      0.000357
O	     10.17491      1.87016     10.63423         0.080972     -0.064572      0.077086
O	     12.33428      4.06334     10.52507         0.183362     -0.000674      0.001811
O	     12.24605      1.92530     12.66371        -0.024758     -0.004427      0.005222
O	     14.24319      4.01303     12.65890         0.009763      0.069698     -0.054230
