# total energy = -175.09254994 eV
 
CRYSTAL
PRIMVEC
-0.000075 2.088025 2.088049 
8.111996 -0.027543 8.379433 
8.155247 6.320697 2.031121 
PRIMCOORD
24 1
Li	      8.11096      2.06068     10.46449         0.000252     -0.008064      0.008037
Li	     12.20992      6.35075     10.34928         0.026239      0.025948     -0.023438
Li	      2.02990      2.13417      4.13040        -0.015667      0.013335     -0.016250
Li	      4.05450      2.02635      2.14657        -0.025126     -0.019328      0.022399
Li	      5.97847      2.11119      4.15032        -0.007804      0.016274     -0.017093
Li	     14.23692      8.33437     10.45335         0.002642     -0.019079      0.022987
Li	     10.28677      6.26627      8.34840         0.009370     -0.004052      0.006197
Ti	     10.23540      4.15624     10.45794         0.103983     -0.075982      0.074498
Ti	      6.02801      4.22404      2.03807        -0.079871      0.056071     -0.055530
Ti	     12.21105      8.39446      8.30835        -0.023884     -0.007547      0.005871
Ti	      8.25569      6.25344      6.27345         0.133285     -0.023174      0.020832
Ti	      8.00908      2.12544      6.22472        -0.100152      0.049088     -0.049377
O	      2.02053      2.19184      1.98258         0.022423      0.092921     -0.093306
O	     12.18860      4.17610     10.43832        -0.002361      0.000863     -0.002492
O	     14.24424      6.18730     10.51447        -0.019844     -0.079436      0.080868
O	      4.03242      1.98624      4.27681         0.011813      0.019531     -0.022544
O	      6.16024      4.24865      4.10199         0.020172      0.029532     -0.032538
O	      8.10302      6.22196      4.21676        -0.034616     -0.024394      0.026162
O	      6.09096      2.10539      6.24487         0.050010      0.000300      0.000956
O	      8.13307      4.18979      6.24867        -0.007757     -0.003918      0.004399
O	     10.17528      6.27417      6.25235        -0.075146     -0.003530      0.002619
O	      8.16260      2.15750      8.28073         0.015784      0.013465     -0.014475
O	     10.10445      4.13134      8.39480        -0.013261     -0.030575      0.030959
O	     12.23213      6.39342      8.22078         0.009517     -0.018250      0.020259
