# total energy = -193.27625930 eV
 
CRYSTAL
PRIMVEC
0.069937 27.350919 26.888267 
2.100804 2.109855 4.136161 
2.100752 8.404364 6.221769 
PRIMCOORD
26 1
Li	      2.02292      8.39088      6.30400         0.009188     -0.000675     -0.025019
Li	      0.02617      4.19875      4.13493         0.006074      0.014140     -0.026692
Li	      2.11254     10.52194     12.39246         0.005675     -0.013081     -0.012670
Li	      2.15700     18.88357     16.59188        -0.015178     -0.016319      0.016601
Li	      2.13054     16.97001     18.62688        -0.014655      0.020786     -0.003744
Li	      0.14598     16.76781     16.45871         0.009231      0.012550      0.015044
Li	      2.17541     25.34087     26.95639        -0.005407     -0.012452     -0.010115
Ti	      0.07695      2.06583      2.03822         0.117551      0.044219     -0.011918
Ti	      2.05720     14.70908     12.57049        -0.082794      0.118203      0.143969
Ti	      2.09405     20.94266     18.67459        -0.034179     -0.105064      0.053714
Ti	      4.14545     29.38645     28.90139         0.002178     -0.003093     -0.022135
Ti	      0.08299     21.08251     20.69820        -0.029716     -0.013596      0.048486
Ti	      2.19362     27.44387     28.89265        -0.002725     -0.018523     -0.062152
O	      2.12384     29.53974     29.03415        -0.044210     -0.008247      0.007280
O	      2.18210     31.61356     31.05023         0.026449      0.011509      0.044418
O	      2.01412      6.25041      6.14501        -0.039516     -0.045038      0.016573
O	      2.14315      8.46636      8.33287         0.022704      0.039418      0.007771
O	      2.10532     10.36199     10.27852        -0.011529     -0.103869     -0.017144
O	      2.11950     12.68612     12.39902        -0.008714      0.022777      0.013066
O	      2.13190     14.72270     14.46576         0.003186     -0.016456     -0.145865
O	      2.23707     16.68170     16.55853         0.137857     -0.054072      0.020090
O	      2.06340     19.01955     18.61352        -0.033567      0.159461     -0.003506
O	      2.16213     20.98275     20.66955        -0.029928      0.012080     -0.076201
O	      2.18989     23.10018     22.73863         0.076726     -0.024990      0.038107
O	      2.16409     25.22977     24.81614        -0.059775     -0.013606     -0.000811
O	      2.12467     27.40707     26.88269        -0.004928     -0.006062     -0.007149
