# total energy = -193.28473542 eV
 
CRYSTAL
PRIMVEC
0.377529 26.963338 27.582668 
2.124992 2.099638 4.246982 
2.202315 10.364248 8.521904 
PRIMCOORD
26 1
Li	      4.25638     12.51934     12.77368         0.005580      0.000245      0.021580
Li	      2.27230     14.44276     12.83274         0.009736      0.006085      0.012038
Li	      4.28573     18.70305     19.13795        -0.027436      0.011470     -0.010670
Li	      4.47104     22.83594     23.37842         0.001661     -0.001616     -0.005796
Li	      0.33218     14.50588     14.84481         0.022575     -0.009973      0.012270
Li	      2.34477     18.76530     21.15129        -0.012586     -0.007383     -0.011813
Li	      0.35918     20.68931     21.20857         0.000635     -0.003616     -0.020176
Ti	      2.09881      4.27337      6.35254        -0.063345      0.091258     -0.008157
Ti	      0.19354      8.22776      8.45723         0.069999     -0.087212      0.026734
Ti	      4.42373     24.98119     25.52613        -0.077206      0.085214     -0.027559
Ti	      2.51689     28.93595     27.62997         0.077724     -0.109847      0.015703
Ti	      4.58908     35.33138     36.10453        -0.055224      0.083710     -0.006566
Ti	      0.40612     24.83844     25.46131         0.049886     -0.052114     -0.011540
O	      2.42512     29.02240     29.67633        -0.038266     -0.032281     -0.032325
O	      2.56920     31.14907     31.88872         0.032833      0.029096      0.027727
O	      2.56734     33.19917     33.99336        -0.011823     -0.059878     -0.006385
O	      2.18221      8.30673      8.53156        -0.028202     -0.001465     -0.000798
O	      2.27013     10.43825     10.67032         0.008151      0.018904      0.049215
O	      2.19816     12.39607     12.68279        -0.030349     -0.027883     -0.025929
O	      2.36038     14.53163     14.96262         0.112094      0.017859      0.039627
O	      2.30860     16.60440     16.99159        -0.001422     -0.007931     -0.002311
O	      2.25642     18.67652     19.01929        -0.114688     -0.012682     -0.029639
O	      2.41922     20.81201     21.30028         0.020842      0.033714      0.022455
O	      2.34719     22.77018     23.31375        -0.006228     -0.019087     -0.054213
O	      2.43419     24.90150     25.45014         0.039915      0.000798      0.013655
O	      2.42654     26.97307     27.57240         0.015143      0.054615      0.012872
