# total energy = -192.76353049 eV
 
CRYSTAL
PRIMVEC
-0.000309 2.085211 2.085184 
26.956679 -0.265296 27.368779 
6.208818 2.052605 4.202058 
PRIMCOORD
26 1
Li	      6.20843      4.13576      6.28538         0.000172      0.003482     -0.003452
Li	     10.41773      4.03659     10.55565        -0.000328      0.003446     -0.007126
Li	      8.51742      2.02334     10.48261         0.029208     -0.006658      0.007273
Li	     10.26689     -0.04239     10.46340         0.003261     -0.000216     -0.000843
Li	     22.89718      3.91197     23.18947        -0.000617      0.000071     -0.000996
Li	     24.64799      1.84735     23.16788        -0.031441      0.004742     -0.003678
Li	     22.74715     -0.16595     23.09604         0.000795     -0.004725      0.006787
Ti	      2.13678      2.06682      4.18562         0.070829      0.053403     -0.056512
Ti	     12.35125      1.93857     10.56805        -0.282197      0.028402     -0.032584
Ti	     18.56649      1.93961     16.82093        -0.075230     -0.019626      0.017393
Ti	     14.59820      1.93027     16.83044         0.067494      0.011348     -0.006926
Ti	     20.81318      1.93148     23.08328         0.284404     -0.034589      0.038184
Ti	     31.02825      1.80282     29.46590        -0.063843     -0.041785      0.047219
O	     28.98378      1.77330     29.49762         0.065600     -0.006908      0.008629
O	      4.18143      2.09702      4.15320        -0.059787      0.010043     -0.010738
O	      6.28953      1.94863      6.38887         0.031874     -0.051425      0.051627
O	      8.27292      2.05346      8.36683        -0.043054      0.011687     -0.007998
O	     10.49995      1.98313     10.52324         0.331936     -0.014959      0.013562
O	     12.47679      1.95768     12.63345        -0.048644      0.004525      0.005080
O	     14.45688      1.91006     14.76634         0.013294     -0.023774      0.037183
O	     16.58198      1.93514     16.82576         0.004907     -0.002482      0.001327
O	     18.70733      1.95961     18.88613        -0.015447      0.025573     -0.043994
O	     20.68777      1.91232     21.01715         0.046259     -0.010461      0.014067
O	     22.66490      1.88739     23.12885        -0.340070      0.011444     -0.016771
O	     24.89198      1.81553     25.28560         0.046289     -0.006941      0.001592
O	     26.87524      1.92158     27.26269        -0.035663      0.056382     -0.058303
