# total energy = -192.84953238 eV
 
CRYSTAL
PRIMVEC
0.000322 2.076105 2.076022 
26.655457 -0.146419 27.138967 
8.230384 2.082638 6.222803 
PRIMCOORD
26 1
Li	      4.21609      2.02177      6.28405        -0.026300     -0.012413      0.013349
Li	      6.15297     -0.03282      6.26490        -0.001208      0.003972     -0.005442
Li	     16.31886      2.07134     14.54065         0.026763      0.015669     -0.014545
Li	     24.65096      3.99101     25.08085        -0.003658     -0.015339      0.012496
Li	     26.64324      1.95786     25.03783         0.006192     -0.004493      0.004808
Li	     20.54535      1.99201     22.92594        -0.008803      0.002757     -0.005244
Li	     22.53580     -0.04113     22.88262         0.011810      0.009657     -0.008635
Ti	      0.04462      2.06382      2.08813         0.034756      0.022294     -0.015419
Ti	      2.13408      2.02706      4.20331         0.081825     -0.036024      0.036003
Ti	     18.39958      2.06696     16.62120        -0.077828      0.025224     -0.026859
Ti	     20.49060      2.03057     18.73648        -0.057940     -0.010941      0.005490
Ti	     14.47320      1.98128     16.70843         0.102538     -0.046275      0.046793
Ti	     32.71643      1.96678     31.25527        -0.112465      0.039077     -0.039827
O	     28.71833      1.89665     29.24985        -0.101747      0.017444     -0.010576
O	      4.12487      2.04824      4.18147         0.097196      0.003830     -0.000942
O	      6.22144      2.11017      6.19539         0.059636      0.003960     -0.005946
O	      8.26013      2.09255      8.28854         0.030400      0.003838     -0.002121
O	     10.26653      2.04674     10.41235        -0.001746      0.001827      0.001066
O	     12.27443      2.00198     12.53586        -0.041021     -0.004925      0.003587
O	     14.31239      1.98545     14.62812        -0.038658     -0.013149      0.014421
O	     16.40862      2.04492     16.64388        -0.091583      0.001095     -0.002387
O	     18.47112      2.05020     18.71437         0.095619     -0.004015     -0.001647
O	     20.57284      2.05725     20.78412         0.020342     -0.012649      0.014327
O	     22.58275      2.07050     22.84803         0.016373      0.059982     -0.061718
O	     24.60503      1.87645     25.11697        -0.011570     -0.047777      0.049217
O	     26.61566      1.89194     27.17855        -0.008923     -0.002627     -0.000251
