# total energy = -210.99893575 eV
 
CRYSTAL
PRIMVEC
-0.103027 14.668687 14.524995 
4.048725 12.555294 16.588704 
4.096794 6.261403 6.221126 
PRIMCOORD
28 1
Li	      4.05661     12.64821     16.56654         0.001234     -0.010304      0.007447
Li	      6.03686     23.04786     24.94862         0.001221      0.011494     -0.013378
Li	      4.01225     10.40648     10.37091        -0.000985      0.017734      0.000560
Li	      4.05651     12.50162     12.41940        -0.011701      0.008841     -0.010432
Li	      0.01373      8.36649      8.35551        -0.005346     -0.016694     -0.008014
Li	      1.99416      8.47637     10.29562        -0.003859      0.007473     -0.000490
Li	      6.12006     16.67379     18.65067         0.000517      0.004288      0.007311
Ti	      1.90577     14.68883     16.55659        -0.057364      0.039733     -0.033669
Ti	      4.11727      8.33003      8.37804         0.043991     -0.040792      0.063874
Ti	      6.05853     25.11028     26.99401         0.053638     -0.061186      0.060838
Ti	      6.02370     27.15033     29.09189         0.015634     -0.003775      0.061031
Ti	      3.93405     23.01495     26.90292        -0.019295     -0.015725     -0.082637
Ti	     -0.02712     12.57865     12.49515        -0.025921      0.022267      0.001000
Ti	      1.94234     12.59399     14.44418         0.004773     -0.022593     -0.050143
O	      5.99979     29.31570     33.17990         0.011937      0.002090      0.006520
O	      4.01297     16.74370     18.60313         0.000751      0.002795     -0.011802
O	      6.13103     16.79745     20.78643        -0.006217      0.006863      0.029992
O	      4.00257     18.82255     20.75878         0.006995      0.018826     -0.028358
O	      2.03143      6.27292      6.22440        -0.000721     -0.002528     -0.010524
O	      3.96926     20.92491     22.82629        -0.022461      0.015466      0.006051
O	      6.09738     20.90075     24.82050         0.012862     -0.015461     -0.036109
O	      3.95571     23.02754     24.88263         0.002638     -0.001556     -0.014257
O	      5.94279     23.11787     26.94187        -0.041598      0.068794     -0.004578
O	      4.11555     10.39921     12.47724         0.041492     -0.055457      0.014051
O	      2.06612     12.46781     12.42838        -0.004743      0.005570     -0.005226
O	      4.05617     12.51003     14.52235         0.010009     -0.008629     -0.002869
O	      6.00416     27.22886     31.12850        -0.009527     -0.015509      0.028110
O	      3.98774     14.67747     16.65845         0.002045      0.037975      0.025699
