# total energy = -227.11175965 eV
 
CRYSTAL
PRIMVEC
0.034272 10.533797 10.533611 
6.260793 4.192454 10.574795 
6.260912 6.320086 8.447211 
PRIMCOORD
30 1
Li	     10.39584     16.98980     23.37295        -0.016375      0.017725      0.018379
Li	      6.45314      6.42532     12.81018        -0.021920     -0.013706     -0.013347
Li	      2.28054      2.12862      4.25743         0.002316      0.015854      0.016244
Li	     10.31069     18.89192     25.27591        -0.020396      0.009299      0.007949
Li	      2.20819      4.24062      6.36941         0.018142      0.003103      0.003182
Li	     10.13644     10.44457     16.82791        -0.029780     -0.011766     -0.012359
Li	      2.12439      6.15772      8.28657         0.011987      0.005242      0.005764
Ti	      6.17765      6.30611      8.43053         0.156299      0.015936      0.025401
Ti	      2.16926     10.51799     12.64887        -0.009323      0.014830      0.014365
Ti	      6.42459      8.44762     14.83112         0.533421     -0.055810     -0.055199
Ti	      6.25799     12.63917     14.76745        -0.011343      0.052693      0.053413
Ti	     10.42327     12.64799     19.03141        -0.019704      0.047635      0.048090
Ti	      6.11914     14.71139     16.84046        -0.507903     -0.033203     -0.036169
Ti	      2.24581      8.43271     10.56270         0.035802      0.040234      0.037419
Ti	     10.40262     14.68503     21.06683        -0.090077     -0.082428     -0.086353
O	      8.39827     16.71626     23.09950         0.011656     -0.096578     -0.095288
O	      4.34889     12.64503     14.77356         0.187118      0.004962      0.004536
O	      6.28804     12.65996     16.91619         0.008599      0.013195      0.013177
O	      8.23328      8.39163     14.77513        -0.518148      0.015284      0.015042
O	      4.27375      4.24144      6.37020         0.528295      0.000128     -0.000372
O	      6.32355     14.72209     18.97724        -0.027326     -0.019894     -0.023330
O	      8.17233     10.50898     16.89249        -0.187790      0.001618      0.002262
O	      4.16942      6.36296      8.49225         0.059600      0.016739      0.011701
O	      6.26259      6.27225     10.52480        -0.071129     -0.014768     -0.009995
O	      8.32909     12.67334     19.05688         0.020953      0.012777      0.014621
O	      4.39048      8.41053     10.53794         0.055812     -0.030892     -0.027415
O	      6.21306      8.51448     12.77033        -0.049573      0.043604      0.043008
O	      8.30682     14.71825     21.10387        -0.021680      0.054183      0.052538
O	      4.21951     10.46706     12.59463        -0.035075      0.002982      0.001986
O	      6.23765     10.51331     14.76912         0.007543     -0.028975     -0.029249
