# total energy = -228.93049069 eV
 
CRYSTAL
PRIMVEC
0.018075 10.400823 10.490035 
6.243785 4.158436 10.502571 
6.229533 2.076070 4.210807 
PRIMCOORD
30 1
Li	      8.28866     12.41305     16.85452         0.010271      0.028075     -0.004757
Li	      4.26008     10.35560     14.67892        -0.006815     -0.016734     -0.016202
Li	      6.16467      6.40529      8.55414        -0.018226      0.005056      0.001873
Li	      8.22146      6.28515     10.47337         0.016066     -0.019660      0.011761
Li	      6.27074     10.38534     16.74631        -0.006842      0.006024      0.009399
Li	      4.22820      6.30764     10.41532         0.002662      0.015416      0.005032
Li	      6.23866     10.30569     12.60974         0.000175      0.020605      0.005306
Ti	      6.24361      4.16260     10.46624         0.002581      0.003130     -0.021233
Ti	     12.44572      8.34021     16.82134        -0.022723      0.017376      0.008481
Ti	      8.29893      4.15991      8.41227        -0.034709      0.010356      0.008193
Ti	      4.21533     12.57453     16.84607        -0.014090      0.047694     -0.010177
Ti	      4.20917      4.11078      8.30057         0.031271     -0.014037      0.000367
Ti	      8.25384      8.34630     12.65050        -0.041242      0.014599      0.018517
Ti	      8.31737     10.32602     14.66352        -0.043596     -0.036481     -0.013442
Ti	     10.45137     10.31535     16.84358         0.082154     -0.089671     -0.002841
O	      8.36688      6.23362     12.59320         0.004507     -0.002081     -0.003829
O	      4.14396      2.05804      4.20025         0.008286      0.008286     -0.000039
O	      6.23175     12.50140     16.73714        -0.030622      0.028339     -0.025338
O	      8.29797      8.29334     14.71688        -0.015917      0.002151     -0.026524
O	      4.08800      4.16068      6.20003         0.041703      0.040008     -0.001024
O	      6.24807      4.15510      8.39344        -0.009149      0.001205      0.018467
O	      8.38674     10.38857     16.81651         0.021509     -0.002615     -0.002078
O	      4.11028      6.21461      8.39739        -0.049705     -0.019307     -0.045333
O	      6.22575      6.15248     10.57932         0.016938     -0.091204      0.057432
O	      8.32464     12.50369     18.89906        -0.003381      0.011872      0.027823
O	      4.10681      8.37278     10.54626        -0.029505      0.027246      0.035974
O	      6.25600      8.34405     12.61084         0.016999     -0.012317     -0.007004
O	      8.34530     14.53411     21.02698         0.002418     -0.021084     -0.007735
O	      4.20543     10.36148     12.57756        -0.012337      0.005360     -0.008753
O	      6.32522     10.47712     14.71434         0.081317      0.032394     -0.012317
