# total energy = -90.26078309 eV
 
CRYSTAL
PRIMVEC
0.000014 2.089458 -2.089476 
-0.000026 2.089472 2.089491 
16.637970 -0.000042 -0.000314 
PRIMCOORD
16 1
Li	      2.34081      2.09057      0.00368        -0.000587      0.000474      0.000176
Li	      4.08469      2.09026     -2.08666        -0.021335      0.000054     -0.000327
Li	      8.35534      2.09045     -2.08659        -0.031856      0.000539      0.000139
Li	     10.14137      2.09067      0.00355        -0.059692      0.000008      0.000406
Mn	      0.19150      2.09083     -2.08530         0.189504     -0.000046     -0.000252
Mn	      6.19293      2.09020      0.00245         0.025797      0.000316      0.001637
Ni	     12.27677      2.09083     -2.08572         0.121963     -0.000049     -0.000933
Ni	     14.55273      2.09079      0.00370         0.048240      0.000656      0.001154
O	     14.79178      2.09078     -2.08570         0.047523      0.000278     -0.001299
O	      0.04492      2.09085      0.00419         0.058304     -0.001605     -0.003022
O	     10.34652      2.09071     -2.08590        -0.176962     -0.001414     -0.001931
O	     12.56258      2.09085      0.00380        -0.107410     -0.000209     -0.000528
O	      6.19029      2.09019     -2.08700        -0.008080      0.000346      0.001149
O	      8.04276      2.09033      0.00268        -0.049483      0.000264      0.001180
O	      2.00665      2.09072     -2.08559        -0.092175     -0.000063      0.000861
O	      4.32946      2.09022      0.00250         0.056251      0.000450      0.001592
