# total energy = -92.52992508 eV
 
CRYSTAL
PRIMVEC
0.000105 2.068353 2.068902 
4.224142 -2.114302 2.115088 
4.185880 6.306054 -6.307474 
PRIMCOORD
16 1
Li	      6.24838      6.15493     -4.08903        -0.013574     -0.006019      0.005772
Li	      4.26454      2.18268      1.95053         0.013952      0.009643     -0.007661
Li	      2.25778      4.35697     -2.29048         0.016693     -0.001368      0.000962
Li	      4.03194      4.03159     -4.03219        -0.017538     -0.001724     -0.000091
Mn	      8.39716      6.24882     -2.11535        -0.013011      0.003669     -0.003844
Mn	      2.11704      2.09001     -0.02495         0.013045     -0.003527      0.004153
Ni	      4.24478      4.19991     -0.06491        -0.055657     -0.035976      0.034991
Ni	      6.26857      4.14060     -2.07406         0.056228      0.034988     -0.036026
O	      6.53721      6.26211     -2.12777         0.112678      0.075433     -0.076473
O	      6.28228      4.18318     -0.04774         0.119433     -0.113209      0.111201
O	      4.24921      6.43408     -4.37038         0.064749      0.057099     -0.053446
O	      2.04083      4.01867      0.11512        -0.065958     -0.052049      0.055283
O	      4.23103      4.15796     -2.09104        -0.118517      0.111381     -0.112679
O	      2.00985      2.17510      1.95821        -0.010021      0.028206     -0.028519
O	      3.97674      2.07699     -0.01177        -0.112725     -0.074853      0.075105
O	      4.31829     -0.14234      2.20854         0.010224     -0.031694      0.031272
