# total energy = -228.95678136 eV
 
CRYSTAL
PRIMVEC
0.035313 6.218008 6.220363 
10.484205 0.031793 10.394650 
6.322348 6.244412 8.302795 
PRIMCOORD
30 1
Li	     10.45546      6.21153     16.44214         0.007016      0.004865     -0.002423
Li	     12.48574      6.19057     14.60363        -0.000148      0.011423     -0.019868
Li	      8.52737      6.30925     14.56346        -0.006329     -0.010194      0.013405
Li	     10.53282      8.27268     14.59783         0.021854     -0.000974      0.000738
Li	      8.47929      2.01528     10.29492         0.001959     -0.000723     -0.001037
Li	     10.53429      4.23919     14.58126        -0.012236     -0.004506     -0.013058
Li	      6.27651      4.22423     10.39103         0.016074     -0.000855      0.010069
Ti	      8.36467      6.27077     10.36443        -0.049716      0.005481     -0.040658
Ti	      4.24967      0.08585      4.26151         0.026307      0.032025      0.330367
Ti	      6.42263      8.25275     10.44657        -0.001209     -0.085262      0.018133
Ti	      8.40968      8.26692     12.37982         0.009784     -0.035490     -0.050423
Ti	     12.60686      8.30865     16.65649        -0.006806     -0.059412      0.042865
Ti	      2.14885      4.21673      6.31156        -0.033830      0.048270      0.029276
Ti	      4.14011      4.19435      8.22037         0.038370      0.003448     -0.074045
Ti	      8.43554      4.18647     12.43162        -0.028806      0.044407     -0.001604
O	     12.71912      8.38990     18.67406         0.005196     -0.000950     -0.010637
O	      4.26988      8.34100     10.38343         0.012831      0.008081      0.003723
O	      6.35739      8.29725     12.48576        -0.007122      0.029978      0.003354
O	      8.39318      8.39053     14.47914        -0.010398      0.001312     -0.021747
O	     10.53689      8.40246     16.66060         0.015468      0.043988      0.016273
O	     12.64804      4.12074     14.61178         0.022728     -0.018497      0.013206
O	      4.20208      4.16436      6.18801        -0.010344      0.013859      0.025299
O	      6.29755      4.10564      8.28529        -0.012110     -0.003990      0.003090
O	      8.33373      4.13351     10.41444        -0.006312     -0.020674     -0.027479
O	     10.53670      4.18595     12.43303         0.012072     -0.001273     -0.005811
O	     12.59466      6.26688     16.60444         0.010913     -0.004842      0.036751
O	      4.17939      6.19788      8.35850         0.016856     -0.047850      0.018613
O	      6.31895      6.23608     10.37840        -0.020068      0.062919      0.004321
O	      8.42746      6.21894     12.47833        -0.021153     -0.021540      0.008088
O	     10.50470      6.26861     14.42297         0.009159      0.006977     -0.308780
