# total energy = -228.87862941 eV
 
CRYSTAL
PRIMVEC
-0.137738 10.477491 10.412545 
6.149056 8.331278 14.545512 
6.212722 4.127540 6.228257 
PRIMCOORD
30 1
Li	      6.22803      6.21081      8.39511        -0.011425     -0.001164      0.016409
Li	      1.93612     12.61953     14.54201        -0.005822     -0.009699     -0.010399
Li	      3.93950     12.63957     16.63328        -0.000801     -0.010394     -0.002921
Li	     10.27158     18.60876     24.96251        -0.005146      0.013951      0.006293
Li	      5.98473     14.71100     20.70629         0.009568     -0.011530     -0.011062
Li	      8.30303     12.41486     16.67446         0.004126      0.005717      0.015585
Li	     10.19628     12.45442     18.68662         0.003219      0.012298     -0.011860
Ti	      6.21083      8.33614     14.47936         0.010921      0.006787     -0.004132
Ti	      1.93596     10.48584     12.42088        -0.012858     -0.027301     -0.058419
Ti	     10.23884     14.53907     20.87787        -0.010261     -0.002074      0.056648
Ti	      6.09102     12.52008     18.69872        -0.026362      0.016248      0.035471
Ti	      8.19443      8.27728     12.55369         0.014389     -0.054460      0.031101
Ti	      8.20831     10.36361     14.51900         0.006267      0.066201      0.006043
Ti	      4.05221      6.26905     10.31012        -0.022250      0.044692     -0.114905
Ti	      6.14265     12.53100     14.62756         0.022426      0.005030      0.011524
O	      8.21680     10.40283     16.61800         0.032972     -0.030974     -0.000754
O	      4.05223     12.47057     14.50138        -0.000835      0.002148     -0.005249
O	      6.10212     12.52299     16.65693        -0.004529      0.005024      0.007730
O	      8.13872     12.54420     18.76094        -0.038385      0.018248      0.006079
O	      4.11234      4.19934      6.22109         0.026001      0.033201     -0.010452
O	      6.09120     14.57841     18.67574         0.013188     -0.027022     -0.009100
O	      8.14036     14.60704     20.71997         0.004679      0.020251      0.012522
O	      4.10593      6.24014      8.32451        -0.000091      0.007070      0.024895
O	      6.12123      6.26135     10.44471        -0.021096     -0.007690      0.022082
O	      8.11211     16.68919     22.85239        -0.007765     -0.006251     -0.003546
O	      4.14138      8.24734     10.38849         0.046616     -0.085326     -0.009338
O	      6.09008      8.37708     12.40856        -0.005026     -0.006719     -0.035693
O	      8.20380     18.69276     24.98806         0.010606     -0.009080      0.020413
O	      3.99663     10.51383     12.54931        -0.010945      0.039558      0.021863
O	      6.11223     10.42619     14.56171        -0.021381     -0.006741     -0.006827
