# total energy = -228.45360027 eV
 
CRYSTAL
PRIMVEC
0.001074 2.062711 2.063684 
30.827342 -0.209639 31.180947 
16.479279 2.018087 14.498971 
PRIMCOORD
30 1
Li	     16.57580      3.96963     16.67288         0.008972     -0.003940      0.002644
Li	     18.53522      4.04136     18.66632        -0.018284     -0.002892      0.003324
Li	      4.11494      2.03501      6.22220        -0.007998      0.000743     -0.000414
Li	      6.17082      2.04635      8.27615         0.014731      0.001395     -0.002319
Li	      8.12682      0.05536      8.20468        -0.004511     -0.005022      0.005508
Li	     28.71900      1.89276     27.01222        -0.005902     -0.004152      0.004187
Li	     26.81263      1.92215     29.04598         0.002509      0.007799     -0.005825
Ti	     10.36756      2.05918     12.39134         0.011244      0.006400     -0.010218
Ti	     30.87714      3.90366     31.18738        -0.004185      0.064062     -0.048917
Ti	     32.80941      1.92059     31.11222         0.020109      0.011487     -0.018622
Ti	     18.45645     -0.10147     18.68405         0.011741     -0.008699      0.005857
Ti	     37.07514      3.91759     37.37504        -0.012307      0.017206     -0.016204
Ti	     22.71779      1.89515     24.94656         0.046927     -0.009203      0.014033
Ti	     24.65257     -0.09030     24.87274         0.021084     -0.028967      0.013744
Ti	     45.16562      1.75720     43.66590        -0.031806     -0.017605      0.020974
O	     32.93791      1.89342     33.20142         0.056335      0.012391     -0.013844
O	     35.01727      1.90514     35.25506        -0.004366      0.015437     -0.016805
O	     37.05512      1.87601     37.35094         0.013950      0.025789     -0.028728
O	     39.05544      1.85694     39.43695         0.048346      0.048137     -0.044024
O	     10.37565      2.09204     10.29647        -0.004951     -0.013563      0.016761
O	     12.35260      2.01301     12.43805        -0.029328      0.001320     -0.002107
O	     14.32704      1.93282     14.58109         0.003402      0.012586     -0.016863
O	     16.47543      1.95915     16.62121        -0.052549     -0.064610      0.061739
O	     18.47542      1.94008     18.70825        -0.021227     -0.042483      0.043959
O	     20.51526      1.91110     20.80349        -0.015547     -0.006528      0.008893
O	     22.59422      1.92150     22.85781        -0.045435     -0.004814      0.008204
O	     24.79484      2.02145     24.82463         0.005220     -0.008557     -0.002995
O	     26.74877      2.00898     26.89647         0.004120      0.020928     -0.004796
O	     28.78039      1.80730     29.16052         0.004148     -0.016655      0.002564
O	     30.73624      1.79339     31.23421        -0.014444     -0.007989      0.020293
