# total energy = -228.18360057 eV
 
CRYSTAL
PRIMVEC
0.000145 2.084096 2.083481 
10.273682 -0.078979 10.497135 
14.410363 6.263806 8.323416 
PRIMCOORD
30 1
Li	     12.51112      4.16704     12.50459         0.015598      0.009222     -0.007618
Li	     14.22991      4.08932     10.49811        -0.018729     -0.010107      0.012028
Li	     14.27865      2.16027     12.42766        -0.003223      0.005071     -0.006881
Li	     18.60293      6.23982     16.68188         0.006986      0.011123     -0.009568
Li	      6.16621      2.03695      8.38270        -0.000429      0.000074      0.000842
Li	      8.13546      2.01414      6.32302        -0.003084     -0.014376      0.012282
Li	     12.45990      6.09619     10.57568         0.002981     -0.013258      0.014832
Ti	     24.59739      6.20900     18.79884        -0.027515      0.009366     -0.010810
Ti	      2.14047      2.04562      4.20677         0.069978     -0.008215      0.005925
Ti	     16.36479      4.13433     12.53921        -0.285415      0.049795     -0.053106
Ti	      4.06978      0.02253      4.14363        -0.042958      0.010177     -0.013448
Ti	      6.23782      4.18280      6.23774         0.032942      0.000646      0.004299
Ti	     10.22350      4.15015      6.27018        -0.037142     -0.018085      0.010378
Ti	     22.67387      8.23006     18.86242         0.037768      0.024064     -0.019164
Ti	     10.37546      4.11835     10.46806         0.282597     -0.039360      0.040600
O	     12.27804      1.93376     12.65330        -0.046257     -0.034983      0.033264
O	     14.49470      4.12005     12.55135         0.311661      0.008783     -0.009715
O	     16.34035      6.21392     12.54223        -0.001076     -0.005518      0.007994
O	      4.21674      2.13525      4.11552         0.039168     -0.025104      0.030478
O	     16.51255      4.13318     14.62155         0.011251      0.008398     -0.011714
O	     18.49486      6.29999     14.53815         0.034864      0.019817     -0.015958
O	      6.16713      2.12043      6.21746        -0.035052      0.023725     -0.024925
O	      8.23380      4.16617      6.25394        -0.004655      0.003933     -0.002254
O	     20.57447      6.13217     16.78832         0.019167     -0.018523      0.025038
O	      8.24433      1.95385      8.46681        -0.026493     -0.027025      0.027390
O	     10.22742      4.12008      8.38461        -0.009766     -0.003662      0.006954
O	     12.24633      6.19833      8.39147        -0.034648      0.016056     -0.011908
O	     10.40431      2.04044     10.46357        -0.015009     -0.003991     -0.003186
O	     12.24614      4.13502     10.45350        -0.308894     -0.009718      0.003729
O	     14.46211      6.32015     10.35315         0.035384      0.031678     -0.035777
