# total energy = -228.13126644 eV
 
CRYSTAL
PRIMVEC
-0.000124 2.100457 2.100448 
6.098279 0.029100 6.271893 
14.395596 10.636122 4.066188 
PRIMCOORD
30 1
Li	      6.32275      2.19561      8.30701         0.008451      0.000772     -0.002445
Li	      8.00256      2.09735      6.30310        -0.004292      0.001629     -0.000288
Li	     12.17985      6.40451      6.19572         0.018011      0.010464     -0.008968
Li	      2.00147      0.14942      1.95039        -0.023082      0.012155     -0.007777
Li	      6.15719      4.24151      2.06123         0.005331     -0.002212      0.000866
Li	      6.20390      4.18084      6.32323         0.016744     -0.033257      0.030250
Li	     10.33843      8.40334      6.30031        -0.004409      0.015528     -0.015464
Ti	     10.29213      6.33584      8.36558         0.014250      0.042538     -0.032094
Ti	     14.44721     10.57681      8.32653         0.102698     -0.007166      0.009549
Ti	      4.08446      2.16516      2.03562        -0.283666     -0.141393      0.145294
Ti	     14.26095      6.38904      8.31435         0.053349     -0.007364      0.003191
Ti	     16.35505      8.52172      8.28129        -0.022514      0.006581     -0.003239
Ti	      4.18175      2.12261      6.28042         0.275744      0.084592     -0.087297
Ti	      8.08634      4.28000      4.12494        -0.129397      0.029386     -0.042472
Ti	     12.25393      8.57103      4.03177        -0.039572      0.000023      0.000130
O	      2.20689      2.14318      2.05797         0.286796      0.006569     -0.006258
O	     10.23300      4.27154      8.33090         0.041084      0.022691     -0.029673
O	     12.25056      6.38450      8.31846        -0.035348     -0.008443      0.010586
O	     14.19557      8.49031      8.31300         0.009299      0.013599     -0.013291
O	     16.46783     10.65407      8.24925        -0.073931      0.035751     -0.033626
O	      4.11382      2.13458      4.16768         0.028020      0.015506     -0.018895
O	      6.15731      4.26455      4.13876         0.055454      0.006560     -0.006360
O	      8.19506      6.36794      4.13518        -0.009357      0.003466      0.007250
O	     10.22152      8.44754      4.15554        -0.025248     -0.092938      0.092370
O	     18.52325     10.67590     10.32838         0.008359     -0.021557      0.015872
O	      6.03157      2.11891      6.28353        -0.284423      0.016384     -0.017536
O	      8.23274      4.31903      6.18759         0.097322     -0.006702     -0.012714
O	     10.18463      6.32259      6.27760        -0.014485     -0.033619      0.052039
O	     12.35014      8.59965      6.10353         0.034347      0.044871     -0.046860
O	     14.33166     10.54032      6.26284        -0.105536     -0.014416      0.017861
