# total energy = -228.00117989 eV
 
CRYSTAL
PRIMVEC
-0.000118 2.083449 2.082069 
2.083028 -0.000154 2.082105 
31.908248 31.914645 -0.665981 
PRIMCOORD
30 1
Li	      2.08374      0.00677      2.08148        -6.843301     -6.846830      6.846947
Li	      8.45853      6.38091      1.95154         6.941427      6.934447     -6.932675
Li	     12.71481     10.63994      1.86203         6.114790      6.108209     -6.116518
Li	     14.89488     16.97818      1.77296         4.429476      4.430352     -4.438756
Li	     21.23275     19.15522      1.68072        -0.364827     -0.364579      0.364056
Li	     23.40286     25.48505      1.59070        -4.135767     -4.130373      4.138104
Li	     27.65498     29.73950      1.50110        -6.153726     -6.150660      6.164855
Ti	      4.23225      4.23409      4.10287       -11.841558    -11.819790     11.776734
Ti	      4.23565      4.23608     -0.06506        12.062962     12.078669    -12.022996
Ti	      8.50905      8.51141     -0.17299        21.869153     21.865670    -21.883800
Ti	     14.84536     14.84852      3.89140        17.549315     17.544538    -17.540228
Ti	     17.02121     19.10615      1.72760         6.844193      6.845093     -6.843303
Ti	     23.35477     21.28098      1.63632        -7.508859     -7.510337      7.513702
Ti	     25.53068     27.61382      1.54956       -17.140595    -17.137912     17.140937
Ti	     29.78122     29.78751     -0.62055       -21.811118    -21.807645     21.815210
O	      2.16008      2.16188      2.01155       -12.442744    -12.446969     12.439559
O	      4.23427      4.23461      2.01923         0.081788      0.060249     -0.071559
O	      6.30679      6.30681      2.02736        12.620652     12.616161    -12.616846
O	      8.51777      8.52050      1.90083        13.797890     13.796510    -13.809765
O	     10.58296     10.58542      1.91652        12.401361     12.400009    -12.402531
O	     12.77729     12.78101      1.79638        11.779110     11.774141    -11.786379
O	     14.83108     14.83329      1.82382         9.342094      9.341629     -9.344913
O	     17.03694     17.03850      1.71347         7.746752      7.743700     -7.752741
O	     19.08811     19.08997      1.74302         0.443238      0.445081     -0.442823
O	     21.28185     21.29196      1.62701        -1.601465     -1.605401      1.604824
O	     23.34490     23.35403      1.64539        -7.428928     -7.428830      7.432851
O	     25.54779     25.54766      1.53314        -8.800736     -8.796220      8.800993
O	     27.59797     27.59722      1.56392       -11.818445    -11.813682     11.822725
O	     29.79293     29.79921      1.45177       -12.506794    -12.504958     12.496028
O	     31.85246     31.85892      1.47066       -13.625339    -13.620273     13.648306
