# total energy = -90.10822502 eV
 
CRYSTAL
PRIMVEC
0.000064 2.111961 2.112279 
8.306051 0.006719 -0.006482 
0.006764 4.173108 -4.173782 
PRIMCOORD
16 1
Li	      4.32998      2.12107     -2.12018         0.017901     -0.013785      0.013497
Li	      6.05468      4.16249     -2.04908        -0.013655      0.011024     -0.011811
Li	      4.34179      4.14875     -4.14867         0.041025      0.010651     -0.009730
Li	      6.04308      2.13324     -0.01951        -0.040596     -0.011478      0.009893
Mn	      8.20613      4.17129     -4.17033        -0.121576      0.009628     -0.010745
Mn	      2.17960      2.11058      0.00206         0.124420     -0.009933      0.010581
Ni	      8.20315      2.10293     -2.10194        -0.012569     -0.008914      0.008549
Ni	      2.18268      4.17902     -2.06649         0.009365      0.007766     -0.007272
O	      6.29750      2.08008     -2.07865        -0.139127      0.015351     -0.017320
O	      0.11390      4.21137     -2.09834        -0.039371      0.065970     -0.066448
O	      6.39407      0.01697     -0.01522         0.067097     -0.001539      0.001355
O	      0.14135      2.07852      0.03431         0.033151     -0.063292      0.063765
O	      1.96570      2.06373     -2.06380         0.041256     -0.064816      0.067012
O	      4.08826      4.20230     -2.08983         0.137890     -0.015342      0.015641
O	      1.93166      0.02349     -0.02206        -0.032521      0.065768     -0.065345
O	      3.98514      2.09209      0.02053        -0.072690      0.002941     -0.001622
