# total energy = -244.40581514 eV
 
CRYSTAL
PRIMVEC
-0.105606 16.944757 16.945013 
4.164977 4.228402 8.453909 
4.165028 6.341146 6.341136 
PRIMCOORD
32 1
Li	      4.06427     21.17558     25.40132         0.012091      0.017032      0.016907
Li	      8.06167     14.97376     19.19903        -0.009671      0.011461      0.011338
Li	      8.03588     16.91141     21.13659         0.027483     -0.005538     -0.005509
Li	      8.05457     18.84033     23.06544        -0.005498     -0.019915     -0.019828
Li	      2.04018     10.79842     12.91085        -0.006054     -0.028501     -0.028052
Li	      4.39686     16.90117     21.12627        -0.057433     -0.007638     -0.007762
Li	      2.11703     12.44510     14.55762         0.015961      0.011215      0.010757
Ti	      6.12897     23.38398     25.49641         0.070687      0.007867      0.012309
Ti	      4.31393      6.37555     10.60062         0.015001      0.057925      0.060516
Ti	      6.17230      8.40718     10.52003        -0.009897     -0.104409     -0.105954
Ti	      6.10184     10.62212     12.73482        -0.645404      0.082254      0.081416
Ti	      6.11511     12.66930     14.78187        -0.521863     -0.005615     -0.005854
Ti	      6.13213     14.78519     16.89755        -0.013873      0.002992      0.005428
Ti	      8.19441     21.10441     25.32999         0.000981      0.039932      0.040340
Ti	      0.03948     14.83392     14.83424         0.297048     -0.059101     -0.058980
Ti	      2.09462     14.89332     17.00650         0.037396      0.020643      0.018955
O	      6.35970     23.31827     27.54386        -0.061893     -0.007507     -0.007724
O	      3.99228     19.17487     21.28794        -0.057680      0.038996      0.038635
O	      2.16052      4.25569      4.25592         0.079098      0.033987      0.031328
O	      4.06402     21.15272     23.26577        -0.066274      0.003037      0.003025
O	      6.33095     10.57622     14.80145         0.045024     -0.036404     -0.033952
O	      4.13640      6.38685      8.49951         0.008504     -0.022124     -0.023496
O	      6.29452     12.66170     16.88715         0.010438      0.009483      0.007155
O	      4.08094      8.45532     10.56782        -0.036236     -0.003143     -0.003859
O	      6.13007     14.69598     18.92118        -0.035282     -0.063794     -0.063441
O	      4.30623     10.56042     12.67283         0.577914      0.009045      0.009921
O	      6.21037     16.92222     21.14740        -0.037975      0.005061      0.006006
O	      4.30860     12.68916     14.80154         0.483640     -0.001180     -0.000657
O	      6.14345     19.14558     23.37117        -0.197373      0.009753      0.011673
O	      4.14841     14.74912     16.86198         0.105457      0.025470      0.025457
O	      1.88733     17.00441     17.00483         0.009626     -0.001406     -0.004659
O	      3.99408     16.82569     18.93870        -0.033943     -0.019876     -0.021437
