# total energy = -246.78291365 eV
 
CRYSTAL
PRIMVEC
-0.042183 16.652294 16.716340 
4.142612 2.079699 6.259902 
4.133686 10.409320 10.435568 
PRIMCOORD
32 1
Li	      4.12568     26.96484     27.12427        -0.014638      0.007128     -0.011394
Li	      4.18612      4.21904      8.38560         0.000151     -0.009365      0.010667
Li	      2.16872      2.11330      4.08778        -0.003801     -0.009953      0.004164
Li	      4.04340      8.33666     12.39374         0.025786     -0.011971      0.015732
Li	      6.10353     22.92130     25.11644         0.002712     -0.000284      0.008528
Li	      4.15734     24.96228     25.19544         0.010595      0.004150     -0.011278
Li	      6.03067     25.03441     27.09017        -0.001213     -0.001251      0.010550
Ti	      6.12005     27.00639     29.31485        -0.052179     -0.024571      0.078806
Ti	      4.19712     14.51218     14.71988         0.048523     -0.034506      0.102330
Ti	      6.11832     14.54016     16.70637        -0.000379      0.019566     -0.001066
Ti	      6.16147     16.67723     18.78582        -0.020542      0.027162     -0.003719
Ti	      4.16800     10.40614     14.61119         0.022343      0.043220      0.022155
Ti	      2.03300      8.31925     10.35788         0.007034      0.006324     -0.101964
Ti	      4.12080     12.54034     16.70271        -0.050963      0.022922     -0.015357
Ti	      6.24724     20.81306     23.04190         0.029708      0.009634      0.024127
Ti	      4.16501     14.58804     18.73215        -0.003493     -0.014849     -0.124365
O	      2.03674     18.69139     18.78539         0.007546     -0.017621     -0.079589
O	      4.13600     18.75277     20.87654         0.061688      0.024422     -0.030396
O	      2.04251     20.80978     20.89576        -0.018687      0.002201      0.017834
O	      4.12899     20.82944     22.97941        -0.001459     -0.022526      0.015593
O	      2.04611      6.20027      6.24892         0.027292      0.005505      0.001342
O	      4.07134      6.24982      8.32614        -0.036447     -0.006549      0.003221
O	      6.28699     10.46910     14.62243        -0.009927     -0.005806      0.053785
O	      4.05577      8.20767     10.44308        -0.048416     -0.045372     -0.010834
O	      2.07350     10.39227     10.46802        -0.015433     -0.018441      0.019200
O	      4.12020     10.38288     12.51732        -0.022107     -0.000323      0.027166
O	      2.10122     12.46624     12.58317        -0.008794     -0.022865      0.011637
O	      4.15129     12.45507     14.63068         0.001740      0.001671      0.019638
O	      6.23497     16.68110     20.84935         0.022656      0.036980     -0.024622
O	      4.01127     14.65892     16.73155         0.034782     -0.011228     -0.014914
O	      6.16053     18.80516     22.97327         0.011101      0.055125     -0.018590
O	      4.08826     16.67188     18.80011        -0.005181     -0.008528      0.001613
