# total energy = -246.50527737 eV
 
CRYSTAL
PRIMVEC
0.073944 16.741452 16.738837 
4.231896 10.445790 14.682915 
4.184336 6.267414 6.306383 
PRIMCOORD
32 1
Li	      8.35679     16.71145     20.93392         0.023255      0.006053      0.016691
Li	      4.24663      8.38662      8.55871         0.001098      0.011149      0.013168
Li	      2.07223     18.95246     20.75520         0.010078      0.002946      0.005710
Li	      4.33099     10.29950     10.52093         0.006410      0.014990     -0.034546
Li	      2.10552     20.93866     22.94639        -0.002084     -0.024600      0.008902
Li	      6.38185     14.53378     16.82522        -0.001608     -0.005119      0.014603
Li	      4.25187     23.18211     27.20743        -0.021559      0.002062     -0.010148
Ti	      2.17062     16.70504     18.79644        -0.014151      0.039024      0.011515
Ti	      4.28399     16.84633     21.00960        -0.015757      0.088708     -0.011382
Ti	      6.38661     12.41298     14.77706        -0.007168     -0.034581      0.082172
Ti	      4.19131     14.56865     14.60746        -0.010607     -0.016848     -0.017599
Ti	      4.17487     16.71350     16.80632         0.004916     -0.015072      0.027165
Ti	      2.10863     10.42248     12.50051        -0.044401     -0.067274     -0.068950
Ti	      2.11840     12.58026     14.65470        -0.006685      0.000193     -0.011288
Ti	      4.32592     25.04697     29.26785         0.002023     -0.084472     -0.160091
Ti	      2.21423     14.75105     16.89379         0.027755      0.028222      0.021267
O	      6.40748     29.22455     33.45575        -0.019455     -0.055726     -0.134196
O	      4.17809     18.85301     20.87653         0.005169      0.011322     -0.000806
O	      6.40777     14.72229     18.90993         0.047905      0.082153     -0.009821
O	      4.30156     20.88415     23.07510         0.014712     -0.009128      0.005899
O	      2.11425      6.28368      6.30589        -0.000378     -0.006949     -0.000937
O	      4.30578     22.97799     25.15485        -0.018961      0.013050      0.001953
O	      6.31062     18.81341     23.03238        -0.023313     -0.005955     -0.003247
O	      4.33441     25.11310     27.37633        -0.009409     -0.003953      0.199978
O	      2.15401     10.39281     10.50449         0.028745      0.004562      0.026086
O	      4.12325     10.48061     12.58673        -0.037844     -0.026015     -0.009702
O	      2.13344     12.52105     12.58150         0.025068     -0.026320      0.032711
O	      4.26519     12.49607     14.70481         0.023917      0.008529      0.008107
O	      2.15200     14.68222     14.73332         0.001829     -0.003055     -0.008772
O	      4.21462     14.63295     16.73706        -0.050553      0.030878      0.000643
O	      6.29004     27.17744     31.36775         0.041871      0.032352      0.038376
O	      4.23706     16.70998     18.88032         0.019181      0.008875     -0.033460
