# total energy = -246.73256335 eV
 
CRYSTAL
PRIMVEC
0.045880 8.352817 8.321278 
8.309715 2.118181 10.417219 
6.259650 6.296473 8.323666 
PRIMCOORD
32 1
Li	      2.20388      8.43256     10.35242        -0.017245      0.037663      0.020056
Li	     12.52957     14.66780     22.97738        -0.020572      0.009353     -0.010519
Li	      2.20131      2.11106      4.22806         0.000020     -0.018412     -0.019920
Li	      4.23123      2.15824      6.25705         0.002943     -0.021188      0.014004
Li	     12.34020      8.32764     16.61108        -0.002435      0.011468     -0.001302
Li	      4.15127      4.21442      8.27624         0.008753      0.011166      0.003821
Li	     10.42392     12.52696     18.69426        -0.004304      0.029953      0.017560
Ti	      6.31074     14.58588     16.61863         0.073829     -0.063926     -0.012519
Ti	     10.36432     14.61753     20.92440        -0.034660     -0.045810      0.048633
Ti	      8.38407      4.27617     12.52560         0.065243      0.022241     -0.012107
Ti	      8.38056      6.26229     14.50526         0.000468     -0.053507     -0.011428
Ti	      8.38642     10.40522     14.54385         0.011077     -0.005499     -0.026984
Ti	      6.27559      4.17250     10.32541        -0.067513      0.038595     -0.088826
Ti	      6.25502     12.60973     14.63864         0.003100      0.013332      0.054245
Ti	      8.26655     12.60126     16.68077        -0.005747     -0.002716      0.007781
Ti	      6.29524      6.34874     12.48707         0.053102      0.039307     -0.000956
O	     10.48349     12.58162     20.80407        -0.009246      0.051694      0.007182
O	      4.23959     10.40185     12.43699         0.030677     -0.015952     -0.026041
O	      6.35081     10.53743     14.54166         0.041713      0.017991     -0.006053
O	      8.33906     10.49460     16.63941        -0.001372     -0.014512      0.004546
O	     10.45461      6.28992     14.61637        -0.039040     -0.009106      0.008855
O	      4.14196      4.19165      6.25621        -0.007697     -0.006998      0.004661
O	      6.10837      4.10132      8.32985         0.034356      0.023603      0.002747
O	      8.41209     12.58133     18.76553        -0.044539     -0.035920      0.003086
O	     10.34134      8.30351     16.68250        -0.068554     -0.041481      0.028514
O	      4.18155      6.33311      8.33077         0.046436      0.080100     -0.013066
O	      6.25496      6.28020     10.38738        -0.003371     -0.021365     -0.015322
O	      8.29991      6.38472     12.38671        -0.036059     -0.019248      0.041716
O	     10.42376     10.45493     18.72677        -0.010293     -0.043402      0.008883
O	      4.24680      8.41819     10.41994         0.019249     -0.009510     -0.024203
O	      6.27674      8.40659     12.53294        -0.023162      0.018662     -0.030337
O	      8.35075      8.37264     14.59977         0.004841      0.023424      0.023293
