# total energy = -246.59623235 eV
 
CRYSTAL
PRIMVEC
-0.001783 4.168682 4.161787 
16.801689 1.972600 18.832167 
8.391394 4.130642 8.357877 
PRIMCOORD
32 1
Li	     12.62167      8.20898     16.74760        -0.000807      0.015171     -0.003710
Li	     10.43348      4.14893     14.59067        -0.004455     -0.003972      0.006530
Li	     23.16472      8.14923     27.24431        -0.013757      0.025668     -0.007693
Li	     16.86877      4.23882     20.77353         0.004674      0.003477     -0.015006
Li	     16.80271      5.97334     18.97246         0.013723      0.000421      0.003148
Li	     10.41134      2.07752     12.49918         0.002445     -0.007203      0.006825
Li	     23.14826      6.06237     25.13416        -0.012445      0.012171     -0.015953
Ti	      8.36126      4.13130      8.36377         0.050352      0.042032     -0.008211
Ti	      2.07973      4.15267      6.22559        -0.046841     -0.015527     -0.004989
Ti	      6.38113      4.11843     10.45682         0.082789      0.017078      0.006406
Ti	     16.70747      8.28501     20.85441         0.000008     -0.016894     -0.004780
Ti	     20.98860      8.27841     25.17331         0.018752     -0.056264      0.118041
Ti	      2.21872      2.12912      4.18799        -0.049151      0.000861      0.023618
Ti	      4.10705      2.13719      6.14385        -0.024790      0.034870     -0.114569
Ti	      6.36820      1.98666      8.36008         0.028847      0.004162     -0.037736
Ti	     20.91721      6.02985     23.01612        -0.033887     -0.030411     -0.009430
O	     18.91625      4.01349     20.93192         0.026838     -0.019073      0.005596
O	      4.30797      6.12555      8.33838        -0.031637      0.034971      0.000187
O	      6.23965      6.15774     10.49225        -0.001852     -0.024763      0.029243
O	      8.43351      6.22593     12.52163        -0.019165     -0.000509      0.005439
O	     10.45107      6.22401     14.62473         0.036007      0.012271      0.006845
O	     12.62026      6.19636     16.68798         0.000382     -0.023186     -0.002476
O	     14.63498      6.20276     18.75838        -0.004430      0.042438     -0.020427
O	     16.77766      6.23510     20.97582        -0.006926      0.038493      0.038142
O	     18.88729      6.19924     22.94748         0.020381     -0.012156      0.018436
O	     20.97747      6.16027     25.10100        -0.017704     -0.012628     -0.004682
O	      6.32774      4.08024      8.37984         0.048579     -0.012703      0.017319
O	      8.41121      4.12951     10.43558        -0.002617     -0.001523     -0.011111
O	     10.45669      4.19649     12.46459        -0.033484     -0.009008     -0.010746
O	     12.65665      4.11046     14.69853        -0.001738      0.011234      0.008549
O	     14.63661      4.01740     16.75563        -0.028726      0.008080      0.006194
O	     16.76980      3.98494     18.74541         0.000632     -0.057575     -0.028999
