# total energy = -245.78873137 eV
 
CRYSTAL
PRIMVEC
0.000195 2.106195 2.106087 
32.898668 0.101109 33.599399 
12.357723 2.152286 10.485532 
PRIMCOORD
32 1
Li	     33.07643      2.27300     35.64062        -0.004285      0.018582     -0.021852
Li	      1.93750      0.15135      1.95775        -0.046615      0.018232     -0.024389
Li	     28.68516      2.07613     27.40612        -0.006080      0.000390      0.002094
Li	     32.99702      4.18540     33.72591         0.034533     -0.016091      0.015154
Li	     34.78295      2.17763     33.62838         0.025637     -0.004307      0.004135
Li	     26.89326      2.18911     29.39885         0.000366     -0.014089      0.016351
Li	     28.72615      0.20104     29.28077        -0.021112     -0.009569      0.014433
Ti	     16.39711      2.14848     14.70127        -0.081980      0.059765     -0.059600
Ti	     18.60252      4.23298     18.93167         0.038681     -0.010052      0.012640
Ti	      8.24858      2.12366     10.51075        -0.011966     -0.002295      0.003263
Ti	     10.19991      0.07935     10.45121        -0.051318      0.010093     -0.008413
Ti	     24.74577      4.26525     25.22207         0.130250     -0.021325      0.020538
Ti	     14.43077      2.19891     16.75775         0.027449      0.019944     -0.023512
Ti	     30.79337      2.20076     29.38931        -0.176079      0.014628     -0.014447
Ti	     36.94488      2.20837     35.70526        -0.252577      0.026903     -0.029721
Ti	     30.92752      2.18604     33.61759         0.215640     -0.031147      0.035944
O	     35.08018      2.23012     35.68402         0.258962     -0.001900      0.000323
O	     37.06656      2.22193     37.79722         0.018408      0.007752     -0.010589
O	      6.14382      2.04798      6.37377        -0.023246     -0.050683      0.052351
O	      8.27302      2.14536      8.38323        -0.003578     -0.003418      0.000671
O	     10.40231      2.15531     10.48080         0.011307     -0.003762      0.004012
O	     12.27281      2.06651     12.67678        -0.060984     -0.030482      0.029927
O	     14.39072      2.22004     14.63056        -0.003770     -0.036819      0.034760
O	     16.52879      2.15826     16.79751         0.038098      0.021480     -0.024384
O	     18.45633      2.14136     18.91716        -0.038173     -0.016841      0.021240
O	     20.52035      2.15352     21.01214         0.022359      0.005710     -0.001458
O	     22.66680      2.26855     23.00568         0.038674      0.036555     -0.039173
O	     24.63498      2.15901     25.22234        -0.032901      0.022491     -0.023347
O	     26.69564      2.25856     27.22916        -0.019133      0.009451     -0.008704
O	     28.90873      2.18993     29.39914         0.225313     -0.015714      0.020227
O	     30.85377      2.19743     31.49959         0.009470     -0.005947      0.006799
O	     32.80687      2.20359     33.60151        -0.261347      0.002463     -0.005276
