# total energy = -244.94878939 eV
 
CRYSTAL
PRIMVEC
0.000002 2.100801 2.101571 
16.669196 -0.133369 16.945670 
14.576282 4.142610 10.566721 
PRIMCOORD
32 1
Li	      2.32829      2.09507      4.21276        -0.026150      0.002593     -0.004102
Li	     20.83458      1.71444     19.30455         0.005430      0.034505     -0.032576
Li	      4.15348      0.21672      3.98850        -0.009945     -0.039896      0.042211
Li	     22.64272      1.94596     21.17560         0.055569     -0.004117      0.002304
Li	     10.61932      4.14099     10.56976         0.018359      0.015533     -0.016032
Li	     12.38881      2.15682     10.45207         0.008640     -0.001641     -0.000794
Li	     29.06374      3.92986     25.49262         0.004764     -0.006049      0.002247
Ti	     14.50693      4.10006     10.60978        -0.224641      0.030882     -0.025989
Ti	     18.87152      4.09990     19.01599         0.068907      0.001374     -0.001449
Ti	     20.71222      4.06180     16.95030        -0.063114      0.023974     -0.022772
Ti	      8.38812      4.22004      8.38639        -0.034021     -0.031482      0.025182
Ti	      8.32424     -0.04877      8.45518        -0.107202     -0.021382      0.025490
Ti	     25.07774      6.10890     23.31119         0.036789      0.018488     -0.008158
Ti	     12.45324     -0.07330     12.68302        -0.006168     -0.038395      0.024074
Ti	     14.50298      2.00139     12.70775        -0.009383      0.022394     -0.017157
Ti	     16.69807      4.07839     16.93621         0.096343      0.014023     -0.018637
O	     18.63484      2.04737     18.96732        -0.050817      0.005807     -0.009655
O	     20.91380      4.06395     19.04886         0.011915      0.035412     -0.029626
O	      4.15596      2.07950      4.22753        -0.006336      0.002035     -0.004810
O	     23.02502      4.16156     21.05586         0.051877      0.022317     -0.027169
O	      6.35984      1.95357      6.45200         0.014325     -0.000616      0.003714
O	     24.84550      4.03236     23.28604         0.019915     -0.014551      0.020692
O	      8.36762      2.07653      8.43096         0.027308      0.036625     -0.039079
O	     27.08960      4.06404     25.35624        -0.064628      0.023836     -0.018581
O	     10.38434      1.97694     10.63275        -0.038847     -0.018258      0.018603
O	     12.63326      4.14771     10.56235         0.261889     -0.014978      0.020205
O	     12.51752      2.07069     12.64036         0.046960     -0.027698      0.020430
O	     14.59852      4.12085     12.68997        -0.018728      0.010359     -0.013633
O	     14.60830      2.00077     14.80919         0.009782      0.003576      0.002279
O	     16.53566      4.01784     14.89544        -0.026053     -0.013478      0.016362
O	     16.68235      1.95589     16.95753        -0.024092     -0.035308      0.031862
O	     18.67877      4.10179     16.91282        -0.028646     -0.035884      0.034564
