# total energy = -92.05938775 eV
 
CRYSTAL
PRIMVEC
-4.053701 0.000027 -0.000002 
0.000002 0.000004 4.091421 
0.000034 8.538952 0.000017 
PRIMCOORD
16 1
Li	     -0.00029      4.36314      4.09094        -0.000199      0.021634     -0.000110
Li	     -2.02719      6.31530      4.09099         0.000353     -0.022853     -0.000113
Li	     -2.02723      8.47390      2.04518        -0.000585     -0.061571     -0.000491
Li	     -0.00035      2.20515      2.04509         0.000612      0.064067     -0.000137
Mn	     -0.00038      8.51820      4.09089        -0.000023     -0.159550      0.000308
Mn	     -2.02719      2.16003      4.09084        -0.000224      0.161540      0.000877
Ni	     -2.02714      4.28157      2.04522        -0.000606      0.101617     -0.000668
Ni	     -0.00034      6.39660      2.04526        -0.000090     -0.100902     -0.000105
O	     -2.02719      2.26061      2.04512         0.000020     -0.162768     -0.001626
O	     -0.00031      4.42021      2.04520         0.000394     -0.231224     -0.000137
O	     -2.02719      6.25797      2.04524        -0.000016      0.228246      0.000342
O	     -0.00036      1.94932      4.09084        -0.000267     -0.100392      0.000465
O	     -2.02714      4.05919      4.09092         0.000047     -0.104644      0.000467
O	     -0.00040      8.41762      2.04518         0.000689      0.160014      0.000224
O	     -0.00035      6.61903      4.09095        -0.000118      0.106032      0.000339
O	     -2.02725      0.18999      4.09087         0.000014      0.100754      0.000366
