# total energy = -246.21058968 eV
 
CRYSTAL
PRIMVEC
-0.454692 33.021160 33.713040 
1.906694 12.382949 14.721056 
1.906710 16.510577 14.721064 
PRIMCOORD
32 1
Li	      1.54488     45.40568     48.29624         0.013101     -0.000580      0.001825
Li	      1.73570     26.83175     25.47684        -0.015729      0.000469      0.005743
Li	     -0.00131     12.38517     12.52979        -0.018420     -0.002679     -0.003621
Li	      3.36024     47.46953     48.41357        -0.006686      0.000900      0.015456
Li	      1.58739     33.02289     35.63063         0.018003     -0.000993     -0.014363
Li	     -0.10425     24.76769     25.33341         0.002429      0.000045      0.005948
Li	      3.26622     59.85242     61.13248        -0.027143      0.001061     -0.001079
Ti	      0.01607      2.06571      2.14485         0.140140     -0.003852      0.094788
Ti	      1.85555     20.63977     19.00024        -0.017062     -0.000548     -0.018471
Ti	      1.84389     18.57597     20.92850        -0.032169      0.000824     -0.095142
Ti	     -0.00043      8.25683      8.53322        -0.046921      0.002181     -0.016703
Ti	      1.72088     26.83180     29.43135        -0.018922     -0.003331     -0.154921
Ti	      3.50649     45.40595     46.26473        -0.099598     -0.003849      0.137255
Ti	      3.32906     51.59713     52.69139         0.005787      0.000428      0.010966
Ti	      1.54272     43.34229     42.13128         0.037238      0.001128      0.038626
Ti	      1.51794     41.27840     44.13851         0.051436     -0.001721     -0.060432
O	      1.62641     35.08675     35.87933        -0.018636     -0.001712     -0.015533
O	      1.60655     37.15034     37.95758         0.030514      0.002302      0.038007
O	      1.52995     39.21464     40.03227        -0.019879     -0.002671      0.001711
O	      1.60942     41.27861     42.02686        -0.086927     -0.002340      0.027332
O	      1.51697     43.34213     44.22743         0.000197      0.000546      0.005237
O	      1.57227     45.40588     46.25513         0.212991     -0.000277     -0.076734
O	      1.82312     14.44835     14.86338        -0.073519      0.002344      0.041403
O	      1.87199     16.51209     16.88482         0.017780      0.004025     -0.020892
O	      1.66405     18.57597     18.90074        -0.006122     -0.000009      0.002346
O	      1.77302     20.63975     21.07923         0.033957      0.003072      0.007666
O	      1.75023     22.70375     23.10353         0.017493      0.000204      0.024271
O	      1.83573     24.76797     25.20434         0.084246     -0.002528     -0.155580
O	      1.68222     26.83163     27.44836        -0.082183     -0.000023      0.145274
O	      1.74199     28.89539     29.45372        -0.025651      0.000543      0.078617
O	      1.68954     30.95875     31.54144        -0.090468      0.004944      0.027760
O	      1.73060     33.02261     33.55425         0.020724      0.002096     -0.076759
