# total energy = -246.04086411 eV
 
CRYSTAL
PRIMVEC
-0.000003 2.085910 2.086240 
32.911453 -0.380121 33.759733 
4.113969 2.085968 2.086185 
PRIMCOORD
32 1
Li	     32.91185     -0.29618     33.67698        -0.000372      0.000185     -0.000317
Li	     10.28450      3.97482     10.62563        -0.000689     -0.012752      0.014815
Li	      8.22735      2.11683     10.39868        -0.002550      0.000142      0.000726
Li	     14.39815     -0.16441     14.76962         0.001541     -0.004491      0.003177
Li	     24.68635      3.80894     25.39904         0.000866     -0.000552      0.002294
Li	     22.62952     -0.13437     23.08580        -0.001400      0.015563     -0.015598
Li	     32.91219      3.75656     33.79553         0.001611      0.002828     -0.002108
Ti	      2.05679     -0.01948      2.10726         0.000271      0.026001     -0.029947
Ti	      4.11339      2.04954      6.29383        -0.000193     -0.025356      0.032190
Ti	     14.39759      1.96405     12.63949         0.003305      0.064968     -0.064967
Ti	     12.34078     -0.13260     12.65213         0.002771     -0.071880      0.068312
Ti	     20.56999      1.88872     18.97447        -0.000265      0.053782     -0.055649
Ti	     18.51489      1.87750     21.07153        -0.002303     -0.088326      0.091053
Ti	     28.80023      1.79075     27.42044        -0.001689      0.064555     -0.076625
Ti	     30.85612      3.86121     31.60421         0.001442     -0.023484      0.030656
Ti	     30.85533     -0.35539     31.64990        -0.001595      0.004289     -0.004820
O	     34.96861      1.72415     35.82860        -0.000406     -0.028899      0.032273
O	      4.11377      2.09438      4.16404         0.000724      0.002789     -0.000321
O	      6.17035      2.04212      6.30373        -0.000408     -0.025228      0.017946
O	      8.22706      2.12894      8.30140         0.002412      0.076554     -0.074571
O	     10.28379      1.88564     10.63209         0.002209     -0.021596      0.025781
O	     12.34075      1.97897     12.62654        -0.001366      0.028587     -0.031178
O	     14.39786      1.91298     14.77704        -0.000409      0.003125     -0.001071
O	     16.45544      1.92077     16.85635         0.000279     -0.001526      0.002745
O	     18.51291      1.92886     18.93460         0.001512     -0.014592      0.013260
O	     20.57183      1.86274     21.08610        -0.001600     -0.026083      0.027653
O	     22.62902      1.95556     23.07991        -0.002374      0.039799     -0.043279
O	     24.68639      1.71261     25.41057        -0.002730     -0.092634      0.091390
O	     26.74318      1.79997     27.40749         0.000325      0.013962     -0.005439
O	     28.79928      1.74644     29.54939        -0.001687     -0.001466     -0.003499
O	     30.85557      1.73681     31.64363         0.000146      0.035063     -0.038628
O	     32.91177      1.72999     33.73648         0.002625      0.006670     -0.006254
