# total energy = -169.20393360 eV
 
CRYSTAL
PRIMVEC
-0.027434 24.437632 25.541005 
2.034022 2.034232 4.256787 
2.020367 14.253015 12.770471 
PRIMCOORD
24 1
Li	      4.04054     16.30173     17.03104        -0.007939      0.005588     -0.001747
Li	      4.04762     20.36238     21.28496         0.005390     -0.003520     -0.000380
Li	      2.01375      8.15824     10.63879        -0.005556      0.003777      0.001163
Li	      0.00356      8.13393      8.51216         0.007202     -0.005262     -0.000572
Li	      2.00793     24.43383     23.41391        -0.000211      0.006395     -0.001625
Li	      2.01728     28.49615     27.67234         0.007829     -0.004139     -0.001075
Li	      2.01607     18.32822     21.28446         0.002039     -0.003019      0.000398
Li	      2.00829     24.43626     27.66958        -0.000104      0.002107      0.002696
Ti	      1.99836      4.10564      6.38557         0.010139     -0.013120      0.011216
Ti	      0.02041     12.18633     12.77169        -0.017106      0.030845     -0.006231
Ti	      0.01314     18.29591     19.15694        -0.007819      0.004943      0.002064
Ti	      1.97749     22.43452     25.54194         0.012750     -0.017657      0.000918
O	      1.91715     26.49394     27.51440        -0.067046     -0.004203     -0.068590
O	      2.09415     28.48937     29.95492         0.069108      0.000704      0.064667
O	      2.00238     30.54640     31.98509        -0.003094      0.004525     -0.029450
O	      1.97904     32.67212     33.90019         0.000768      0.077719     -0.063748
O	      2.11447     10.16091     10.48744         0.069136     -0.000612     -0.067346
O	      2.02210     12.21788     12.82931         0.007551     -0.003941     -0.025263
O	      1.99974     14.34415     15.05541         0.000892      0.067716      0.067765
O	      2.03890     16.20140     16.87222        -0.002422     -0.076294     -0.069107
O	      2.01610     18.32765     19.09902        -0.008426      0.001999      0.027952
O	      1.92406     20.38495     21.44179        -0.076033     -0.000438      0.064743
O	      2.03157     22.31088     23.57010         0.001052     -0.069296      0.066559
O	      2.00836     24.43672     25.48454         0.001900     -0.004817      0.024994
