# total energy = -168.88340427 eV
 
CRYSTAL
PRIMVEC
0.028444 4.183540 4.089993 
6.320762 2.123854 8.191134 
8.427472 6.309158 6.158523 
PRIMCOORD
24 1
Li	      0.07806      4.18015      4.09414         0.038576      0.012072     -0.009850
Li	     10.55672     10.50187     12.29790         0.002182     -0.000170      0.000348
Li	     12.60837     10.51504     14.34376        -0.037822     -0.014223      0.007228
Li	      6.37621      6.28616      8.17675         0.003647      0.011635     -0.015806
Li	      8.43731      6.29189     10.24600         0.007832      0.013561      0.011431
Li	     10.54259      8.40896     10.25280         0.001975      0.001110      0.001565
Li	     10.54031      6.34351     12.29257        -0.007943     -0.016560     -0.010626
Li	      6.28139      4.22594      6.17039        -0.004009     -0.012566      0.017365
Ti	      8.46624      8.26138     12.20069        -0.109962     -0.494196     -0.081036
Ti	     10.54089      8.55750     14.42824         0.107929      0.487516      0.077254
Ti	      8.36812      8.28245      8.23306        -0.208407     -0.198661     -0.039160
Ti	      4.28990      2.22926      6.11455         0.207280      0.199267      0.039592
O	      8.46663      4.22814     10.16479         0.016751      0.011352     -0.028648
O	     10.52878      6.17445     10.28509        -0.024414     -0.527504      0.026686
O	      4.19303      6.27133      8.18730        -0.007215      0.015994     -0.028617
O	     12.82323     10.59042     16.36763         0.228517      0.031675      0.014723
O	      6.18385      6.22861     10.26088        -0.226002     -0.031380     -0.011631
O	      8.49352      8.42412     10.25044         0.006079     -0.017929      0.027330
O	      8.44957      6.46058     12.25352         0.024284      0.536057     -0.025563
O	     10.51195      8.40692     12.37387        -0.014152     -0.009097      0.031231
O	      4.23597      4.10071      6.14517        -0.001009     -0.204321      0.001878
O	     12.46998      8.38587     14.23089        -0.126545      0.023277     -0.092065
O	      6.50865      4.24940      8.30773         0.124467     -0.017098      0.093587
O	      8.42189      6.41116      8.20289        -0.002036      0.200190     -0.007215
