# total energy = -187.37493142 eV
 
CRYSTAL
PRIMVEC
0.141930 26.805229 26.692398 
2.111269 2.064933 4.114702 
2.140575 12.365171 10.284192 
PRIMCOORD
26 1
Li	      4.21056     14.47912     14.41019        -0.018865      0.030263     -0.003679
Li	      2.16193     16.46639     14.38520         0.001844      0.010890      0.000282
Li	      2.14190     18.51803     16.49586        -0.017763     -0.009047     -0.007099
Li	      2.19464     22.66354     20.63760        -0.006817     -0.007787      0.009273
Li	      2.17749     14.44891     16.35105         0.004199      0.011655     -0.001886
Li	      2.22752     18.59357     20.49375         0.021948      0.012341      0.011416
Li	      2.20919     20.64600     22.60455        -0.001610     -0.008707      0.002061
Li	      2.30003     34.99907     32.86555         0.021205     -0.030549      0.002406
Ti	      2.18715     14.39320     12.34834        -0.054595      0.042402     -0.033114
Ti	      0.07001      8.21704      8.16411        -0.024109     -0.034638      0.072271
Ti	      4.30041     28.89500     28.82728         0.033040      0.031542     -0.080251
Ti	      2.18384     22.71975     24.64260         0.048280     -0.039664      0.038351
Ti	      2.27140     37.10954     34.92656         0.002598     -0.004910      0.000727
O	      2.24704     28.87941     28.79789        -0.009271     -0.020999     -0.009204
O	      2.22094     31.01065     30.93328         0.022783      0.063689      0.138873
O	      2.29187     32.90754     32.74969        -0.020368     -0.065665     -0.140271
O	      2.12402      8.23359      8.19306         0.007711      0.022364      0.006226
O	      2.12221     10.29177     10.25274         0.014173      0.007671      0.011652
O	      2.17834     12.35498     12.28654         0.000285      0.007643      0.008898
O	      2.05524     14.44120     14.31446        -0.059508     -0.007455     -0.110688
O	      2.27935     16.48265     16.60674         0.055363     -0.006810      0.143896
O	      2.18548     18.55641     18.49492        -0.001956      0.001562      0.000963
O	      2.09225     20.62964     20.38401        -0.057407      0.005722     -0.143488
O	      2.31640     22.67183     22.67639         0.058087      0.004241      0.104546
O	      2.19348     24.75784     24.70481        -0.003210     -0.006755     -0.009672
O	      2.24924     26.82129     26.73778        -0.016035     -0.008999     -0.012487
