# total energy = -187.31825685 eV
 
CRYSTAL
PRIMVEC
-0.070612 27.912355 26.484408 
2.049490 2.154860 4.060906 
2.032250 8.568949 6.126361 
PRIMCOORD
26 1
Li	      2.03716      8.56008      6.22842        -0.011204     -0.000179      0.044487
Li	      2.00771     12.86938     10.22273         0.012466      0.001043     -0.001493
Li	      4.02945     19.29980     18.31400        -0.014663     -0.014337     -0.008932
Li	      2.01115     19.26239     16.34886         0.008584     -0.014321     -0.004903
Li	      2.00386     17.22871     18.28176        -0.008031      0.017223      0.001092
Li	     -0.01353     17.19363     16.31659         0.015539      0.014257      0.014021
Li	     -0.04001     21.45934     20.34802        -0.013282      0.005821      0.003316
Li	      1.98090     27.92962     28.40283         0.011696      0.000098     -0.042028
Ti	      2.07932      4.31927      6.06896         0.001611     -0.070949      0.015118
Ti	      2.02595     15.01176     12.27241        -0.034037      0.080249     -0.016828
Ti	      2.01581     15.03904     16.28221         0.011415     -0.006055      0.002485
Ti	      1.98983     21.48318     22.35881         0.041557     -0.106635      0.016550
Ti	      1.93985     32.17206     28.56113        -0.022240      0.087754     -0.028234
O	      1.97484     30.09028     28.47006        -0.016600      0.028510      0.001364
O	      1.97331     32.20253     30.55703         0.002806     -0.005164      0.010171
O	      2.04146      6.40111      6.16100         0.015398     -0.034597     -0.002223
O	      2.05379      8.73161      8.24721        -0.003438      0.051740      0.084899
O	      2.03017     10.59008     10.09116         0.000569     -0.057104     -0.079214
O	      1.99626     12.93807     12.20972        -0.016938      0.043012      0.010839
O	      2.02904     15.05968     14.26762         0.003283     -0.024122     -0.029441
O	      2.08994     17.02679     16.31394         0.091256     -0.018687     -0.004392
O	      1.92767     19.46605     18.31670        -0.088935      0.024987      0.006517
O	      1.98720     21.43320     20.36371        -0.006401      0.024900      0.020930
O	      2.02099     23.55599     22.42104         0.014650     -0.034604     -0.007945
O	      1.98668     25.90369     24.54061         0.002783      0.048520      0.076354
O	      1.96311     27.76183     26.38385         0.002153     -0.041359     -0.082510
