# total energy = -187.35840990 eV
 
CRYSTAL
PRIMVEC
0.000408 2.077941 2.077864 
26.370128 -0.278287 27.295128 
14.208947 1.981092 12.566654 
PRIMCOORD
26 1
Li	     14.18897      1.92176     12.62638        -0.013789     -0.012525      0.012649
Li	     16.22369      1.95522     14.67196        -0.009301      0.004112     -0.005173
Li	      4.04157      0.04270      4.11553         0.000543      0.004559     -0.005161
Li	     24.38031      3.88972     25.20440         0.009453     -0.012522      0.016056
Li	     12.14381     -0.06794     12.53700         0.000844      0.012317     -0.011340
Li	     32.47923      3.77544     33.63034        -0.014120      0.003126     -0.002038
Li	     20.29840      1.86721     23.07390         0.008463     -0.005523      0.002520
Li	     22.33462      1.90237     25.11763         0.020194      0.005871     -0.009264
Ti	     20.20493      1.93292     18.84938        -0.138608      0.054135     -0.050906
Ti	      8.24976      1.96945     10.50054         0.202544     -0.049111      0.047923
Ti	     28.27417      1.85203     27.24327        -0.188823      0.047869     -0.047626
Ti	     16.31605      1.88670     18.89576         0.114889     -0.051129      0.047691
Ti	     24.34348      1.82100     27.27438         0.006042     -0.003579      0.004800
O	     28.44270      1.87684     29.29725         0.018224      0.036875     -0.035293
O	     30.42203      1.87522     31.37683         0.011720      0.067372     -0.064922
O	     32.46794      1.66598     33.66335        -0.020929     -0.052875      0.055401
O	      8.07930      1.94392      8.44651        -0.011283     -0.030747      0.036536
O	     10.14770      2.00391     10.46613        -0.123826     -0.001026      0.003425
O	     12.17616      2.08868     12.46045         0.001728      0.041765     -0.047565
O	     14.19956      1.85636     14.76912        -0.019736     -0.091597      0.091527
O	     16.18296      1.85695     16.84644        -0.037297     -0.019807      0.024041
O	     18.26034      1.90942     18.87312        -0.014668      0.004229     -0.005862
O	     20.33939      1.96290     20.89845         0.025267      0.018462     -0.022792
O	     22.32450      1.96534     22.97473         0.024745      0.083726     -0.087736
O	     24.34827      1.73504     25.28217         0.010267     -0.050190      0.050527
O	     26.37599      1.81907     27.27668         0.137457     -0.003786      0.002580
