# total energy = -186.92770357 eV
 
CRYSTAL
PRIMVEC
-0.000119 2.082696 2.081906 
26.470287 -0.334030 27.396749 
4.072378 2.082487 2.081887 
PRIMCOORD
26 1
Li	      4.05568      2.04070      2.12416        -0.000648     -0.013921      0.015073
Li	      2.05552      2.05802      4.18496         0.006088      0.005219     -0.004905
Li	      6.12838      2.00283      8.40550         0.001733     -0.003290      0.002889
Li	      8.12757     -0.05779      8.38613        -0.001496      0.013256     -0.014841
Li	     12.20722     -0.12538     12.61838        -0.007319     -0.017917      0.016674
Li	     14.26271      2.06903     16.67178        -0.003773     -0.000158     -0.000505
Li	     24.44392      3.73913     25.40193        -0.000188      0.000215      0.001156
Li	     26.46168      1.76746     25.29497        -0.008371      0.020904     -0.023361
Ti	      4.18966      2.02987      6.29639         0.195242      0.008528     -0.010678
Ti	     14.14744      1.99169     12.58193        -0.151257      0.049748     -0.046115
Ti	     16.29504      1.90577     18.91725         0.003051      0.003575     -0.003621
Ti	     22.40408      3.90296     23.15375         0.004314     -0.031465      0.033794
Ti	     28.40468      1.73598     27.41001        -0.149296     -0.027913      0.028984
O	     28.51587      1.84190     29.38591        -0.023310      0.129389     -0.133058
O	      4.06259      1.93423      4.30816         0.023879     -0.111759      0.114632
O	      6.06514      2.02879      6.29600        -0.217060      0.007727     -0.004492
O	      8.13511      2.12381      8.28364         0.022747      0.123257     -0.121149
O	     10.19070      1.88608     10.60580        -0.026263     -0.124548      0.123465
O	     12.26050      1.98190     12.59260         0.186904     -0.016625      0.011581
O	     14.26492      2.06569     14.59109        -0.026328      0.061113     -0.063354
O	     16.29527      1.80686     16.92879         0.004553     -0.036019      0.034864
O	     18.33132      1.86588     18.94583         0.004596     -0.086580      0.091792
O	     20.36798      1.86041     21.04306         0.001759      0.070348     -0.074868
O	     22.40396      1.91993     23.06001         0.002439      0.033631     -0.028478
O	     24.44589      1.66262     25.40004        -0.022264     -0.071978      0.070987
O	     26.51312      1.74656     27.39901         0.180268      0.015264     -0.016466
