# total energy = -186.71989681 eV
 
CRYSTAL
PRIMVEC
-0.000063 2.090322 2.090037 
26.190406 -0.242165 27.411720 
10.068573 2.029938 8.420187 
PRIMCOORD
26 1
Li	     26.23226      1.95675     29.39353         0.027482      0.000170     -0.004725
Li	      4.15712      2.01996      6.33998        -0.024177     -0.022205      0.019935
Li	      5.98742      0.03955      6.22994        -0.022399     -0.000844     -0.002886
Li	     20.08741      1.89549     19.00544        -0.010259     -0.022561      0.018715
Li	     12.13890      2.01809     14.70065         0.008763      0.024068     -0.026598
Li	     26.24115      3.87724     27.47354         0.028205     -0.000319     -0.004597
Li	     28.07337      1.90090     27.36353         0.021556      0.015554     -0.021283
Li	     32.18716      1.71754     31.71968        -0.028403     -0.003761      0.008012
Ti	     11.94673      1.98146     10.55660        -0.185888     -0.050262      0.050432
Ti	     18.06744      1.95638     16.85274        -0.051399     -0.085249      0.084038
Ti	     14.16254      1.95988     16.84854         0.062208      0.085146     -0.084031
Ti	     20.28165      1.93131     23.14619         0.155685      0.069035     -0.066560
Ti	     24.17578      1.86737     27.39174        -0.009878     -0.005898      0.003798
O	     28.24283      1.75119     29.59632         0.005438     -0.047836      0.048196
O	     30.17535      1.91942     31.51827         0.000870      0.050352     -0.045215
O	      6.15818      2.05402      6.30468         0.164684      0.004618     -0.000912
O	      8.05277      2.00864      8.44045         0.002245     -0.005422      0.010271
O	     10.06236      2.00789     10.53040         0.178928      0.011289     -0.006984
O	     12.09978      2.10111     12.52742        -0.037548      0.070179     -0.070020
O	     14.10357      1.85815     14.86026        -0.000521     -0.059452      0.059942
O	     16.11394      1.95857     16.85022         0.002649     -0.002100      0.000582
O	     18.12388      2.05797     18.84145         0.000968      0.062018     -0.060765
O	     20.12627      1.81310     21.17449         0.040376     -0.076105      0.073882
O	     22.16399      1.90646     23.17122        -0.170526     -0.009632      0.013380
O	     24.17619      1.90794     25.26062         0.001376     -0.000443      0.003188
O	     26.07118      1.86227     27.39752        -0.160435     -0.000340      0.000207
