# total energy = -184.46895314 eV
 
CRYSTAL
PRIMVEC
0.000010 2.096992 2.097006 
26.302540 -0.148268 27.409475 
26.302444 1.971466 25.289729 
PRIMCOORD
26 1
Li	     26.25468      1.96856     25.28883         0.008690      0.000736      0.001924
Li	      4.32435      2.07252      6.31400         0.159501      0.000944      0.001236
Li	     32.35576      1.93601     31.61515         0.096084      0.001236      0.000714
Li	     10.27470      2.04153     12.63939         0.075568     -0.000910      0.001714
Li	     38.28239      1.90468     37.94071         0.002072     -0.001431     -0.000028
Li	     16.20016      2.00490     18.96520        -0.021166      0.000379     -0.000311
Li	     44.23197      1.86701     44.26740        -0.089903      0.000261     -0.002620
Li	     22.29812      1.96779     25.28981        -0.129674      0.000588     -0.000373
Ti	      2.06168      2.08305      4.20479         1.007760      0.000632      0.000692
Ti	      8.11153      2.05084     10.52984         0.504274     -0.000140      0.000957
Ti	     40.44479      1.89094     40.04807        -0.278412      0.000357      0.001315
Ti	     46.49367      1.85401     46.37509        -1.105680      0.001181     -0.000368
Ti	     50.58099      3.92840     52.68755        -0.275512     -0.000856      0.000185
O	     28.20886      1.94616     29.50599        -0.137185     -0.001551     -0.002993
O	     30.13644      1.93530     31.61436        -0.775941      0.000097      0.000672
O	     32.50469      1.92583     33.72345         0.182883     -0.000599      0.000265
O	     34.38569      1.91443     35.83161         0.064086      0.000773      0.000971
O	     36.26146      1.90397     37.94114        -0.400815     -0.000822     -0.000993
O	     38.59759      1.89253     40.04992         0.548174     -0.000272     -0.001766
O	     14.17053      2.02852     14.74782         0.072027      0.001500      0.002552
O	     16.05156      2.01755     16.85717        -0.058502     -0.003002     -0.001125
O	     18.41894      2.00312     18.96571         0.923906     -0.000061     -0.000425
O	     20.34581      1.99096     21.07385         0.038559      0.000560      0.000392
O	     22.35538      1.97928     23.18140         0.234064      0.002040      0.001151
O	     24.27778      1.96820     25.28954        -0.143325     -0.000474     -0.000543
O	     26.19855      1.95703     27.39800        -0.501535     -0.001163     -0.003196
