# total energy = -92.14872229 eV
 
CRYSTAL
PRIMVEC
2.073555 4.089852 2.073461 
2.061534 -4.077542 2.061555 
4.171921 0.000054 -4.171846 
PRIMCOORD
16 1
Li	      4.12619     -2.03180      2.06922        -0.011318     -0.000734      0.013315
Li	      4.17985      2.04548     -2.10488         0.005048      0.000477     -0.007957
Li	      2.08675      0.00758      2.05141         0.015866     -0.001292     -0.019887
Li	      2.06416     -2.03775     -0.00276        -0.002439     -0.000423      0.005212
Mn	      0.00560      0.00077     -0.00452         0.025320      0.000250     -0.026713
Mn	      4.13805     -4.07686     -0.01454        -0.030910      0.002480      0.030450
Ni	      4.13174      0.00700      0.00382        -0.019580      0.000023      0.020455
Ni	      4.16998     -2.03790     -2.10766         0.023726     -0.000541     -0.021090
O	      6.20335      0.00173      0.09353         0.109345     -0.135889      0.038868
O	      4.24992      2.13770     -0.00974        -0.129354      0.103243      0.004389
O	      4.04182      0.01220     -2.06774        -0.037033      0.135646     -0.109523
O	      4.27486     -0.03914      2.05383         0.036297      0.015106      0.113875
O	      4.14511     -2.12377     -0.11396        -0.004226     -0.104715      0.127643
O	      6.25390      2.18145     -2.01712        -0.000627     -0.009577     -0.134285
O	      2.08189      0.05299     -0.13948        -0.113515     -0.014448     -0.035082
O	      6.15298     -2.16763     -2.11788         0.133400      0.010394      0.000331
