# total energy = -205.22348183 eV
 
CRYSTAL
PRIMVEC
-0.049501 14.444231 14.605455 
4.171404 2.078732 6.230084 
4.148982 12.379577 12.505968 
PRIMCOORD
28 1
Li	      8.29713     14.45586     18.73094        -0.012400      0.012866      0.016546
Li	      6.14162     26.81597     29.24849         0.005876     -0.011681     -0.005429
Li	      4.28630     14.32447     14.69810         0.006268     -0.009136      0.004980
Li	      2.07584      2.08046      4.12478        -0.004832     -0.012865     -0.007954
Li	      8.18732     20.61076     24.94119         0.000774      0.005741      0.016306
Li	      6.21426     20.65713     22.98038        -0.003185      0.000345     -0.008555
Li	      4.31205     12.50038     16.64935         0.019021      0.007514     -0.017527
Li	      2.02146     10.34510     12.40258         0.008888     -0.000750      0.001406
Ti	      4.11600      6.23924     10.33875         0.006501     -0.008872     -0.062807
Ti	      2.14665      4.17772      6.19937         0.028888      0.055284     -0.002917
Ti	      6.23859     18.54293     20.86047        -0.082428      0.009604     -0.074281
Ti	      4.03694     20.61397     20.91663         0.047934      0.050586      0.024186
Ti	      3.97359     24.69700     25.01444        -0.389783     -0.094799     -0.072649
Ti	      2.09524     12.38563     14.59974         0.098265     -0.019915      0.049662
O	      6.28499     18.59359     22.86586         0.114975     -0.005934     -0.058472
O	      4.20528     16.45012     18.67747         0.000544     -0.023747     -0.029567
O	      1.95678     18.58997     18.86613        -0.055947      0.005534      0.059668
O	      4.13975     18.56648     20.83390        -0.039783      0.002982      0.002821
O	      6.16046      8.30011     12.44739         0.049538      0.038840      0.009564
O	      4.11338     20.63134     22.94153        -0.074860     -0.003131      0.050228
O	      6.14141     10.26957     14.50624         0.018075      0.016484     -0.006140
O	      4.14330      8.27476     10.37851         0.002842      0.034576      0.008431
O	      6.36501     12.40486     16.66384         0.370271     -0.009298      0.000924
O	      4.20132     10.33427     12.48190         0.010271      0.003155     -0.041073
O	      1.98484     12.44069     12.60015        -0.017044      0.005726      0.012137
O	      4.06742     12.33793     14.62143        -0.111127     -0.044754     -0.012364
O	      6.22076     16.51317     20.78694         0.016906     -0.049018      0.053048
O	      4.15892     14.54463     16.77328        -0.014447      0.044664      0.089826
