# total energy = -205.48079821 eV
 
CRYSTAL
PRIMVEC
-0.093918 14.213829 14.341204 
4.268932 2.003884 6.145287 
4.270329 2.004195 2.047450 
PRIMCOORD
28 1
Li	      4.28642      2.11782      6.14616         0.005505      0.008015      0.000594
Li	      4.24151      3.93198      4.09736        -0.012701     -0.000636      0.001336
Li	      6.36826      4.02409      6.14560        -0.031901      0.005021      0.001135
Li	     -0.01058      6.08721      6.14705         0.033403     -0.005061     -0.001339
Li	      2.11959      6.18041      8.19566         0.014935     -0.004059     -0.001711
Li	      6.34352      9.99763     12.29155        -0.006135     -0.007953     -0.001498
Li	     -0.00452     10.14687     10.24343         0.041776     -0.012413      0.001530
Li	      6.27425     14.17797     16.38905        -0.043694      0.014157     -0.000334
Ti	      2.11107     14.25074     16.39030        -0.067370      0.114632      0.001469
Ti	      4.27209      6.07767     10.24418        -0.053667     -0.054838      0.010403
Ti	      6.35833      6.03899      8.19432         0.063277      0.039019     -0.009919
Ti	      4.15745     10.07424     10.24273         0.061088     -0.104930     -0.000554
Ti	      2.13709     10.12034     12.29276         0.033062     -0.140629      0.012115
Ti	      8.40005     16.20906     20.48529        -0.037275      0.143340     -0.011126
O	      2.14192      2.00234      2.04912         0.012868     -0.055362     -0.001309
O	      4.33315     16.11682     18.43841         0.033720     -0.160092      0.002362
O	      2.07211      4.00906      4.09766        -0.008732     -0.011344     -0.001750
O	      4.12672      4.12792      6.14723        -0.028201      0.113068      0.001303
O	      2.23559      5.98370      6.14613         0.025397     -0.105063     -0.004102
O	      4.28960      6.10356      8.19573         0.007378      0.006537     -0.000310
O	      6.20405     10.21219     14.34002        -0.030077      0.153080     -0.001702
O	      4.22012      8.10911     10.24366        -0.014974      0.054429     -0.000011
O	      6.37683     12.17168     16.38900        -0.007364      0.006960     -0.002559
O	      4.17929     10.11069     12.29155        -0.049761     -0.004338     -0.004681
O	      6.26015     14.17603     18.43738        -0.005609     -0.016751      0.005150
O	      4.27724     12.15236     14.34038         0.001703      0.025111     -0.001461
O	      6.35730     16.21828     20.48677         0.059482      0.002150      0.005885
O	      4.16055     14.15659     16.38921         0.003867     -0.002052      0.001083
