# total energy = -204.88238730 eV
 
CRYSTAL
PRIMVEC
-0.000067 4.255795 4.151090 
14.449615 2.246000 16.483604 
4.128537 4.255852 4.150945 
PRIMCOORD
28 1
Li	      4.12784      8.40634      8.24597         0.001662     -0.002755     -0.000872
Li	      8.25593      8.61000     12.60467         0.000782      0.022635      0.018169
Li	      6.19189      4.38653     10.21810         0.001054      0.026368     -0.012641
Li	     14.44930      8.50807     18.59785         0.000039     -0.033172     -0.000028
Li	      6.19208      6.39354      8.41881         0.000564     -0.005136      0.004613
Li	      4.12785      2.11391      6.09836        -0.000365     -0.008440     -0.012805
Li	      8.25614      2.30227     10.25808         0.000125      0.014466     -0.001476
Li	     16.51320      6.48364     18.67953         0.001924      0.002017      0.000605
Ti	      6.19197      8.50109     10.39768        -0.001090     -0.030584     -0.021230
Ti	      8.25630      4.31206     12.32664         0.004030      0.070700     -0.199962
Ti	     12.38510      4.34396     16.35197         0.001515     -0.013236     -0.134236
Ti	      4.12761      6.36323      6.35400         0.002795      0.050088      0.292572
Ti	     10.32001      6.44666     12.46113         0.001185     -0.012772      0.095466
Ti	     10.32123      2.26167     12.28317        -0.005176     -0.100439      0.006561
O	     16.51349      8.61453     22.67380        -0.002568     -0.031940      0.021065
O	      4.12772      6.39422      8.18679        -0.000495     -0.002060     -0.327290
O	      6.19183      6.53395     10.44766         0.002858      0.129772      0.137463
O	      8.25634      6.37702     12.44804        -0.000997      0.006857      0.012129
O	     10.32065      6.46753     14.45489        -0.001101     -0.008150     -0.022772
O	     12.38494      6.43148     16.48098        -0.002150      0.045880     -0.019612
O	     14.44938      6.33686     18.42187         0.001433     -0.061801     -0.071347
O	     16.51302      6.65818     20.72915         0.000059      0.082068      0.089132
O	      4.12768      4.31496      6.16723         0.002566     -0.001805      0.031868
O	      6.19251      4.18924      8.21083        -0.003921     -0.106853     -0.158579
O	      8.25628      4.33745     10.47413        -0.000072      0.004000      0.269988
O	     10.32072      4.34096     12.41504        -0.001355     -0.022745     -0.021246
O	     12.38529      4.27855     14.43376        -0.001353      0.002263      0.076525
O	     14.44948      4.39785     16.46506        -0.001947     -0.015224     -0.052062
