# total energy = -203.88703755 eV
 
CRYSTAL
PRIMVEC
-0.104435 14.970045 14.961273 
4.081296 2.173055 6.347459 
4.081500 4.262367 4.259432 
PRIMCOORD
28 1
Li	      7.99807      8.53211     12.70148         0.004880     -0.009579     -0.009618
Li	     -0.01769      4.35166      4.35003        -0.017200     -0.001985     -0.003897
Li	      6.04862      8.57138     10.65286         0.006376     -0.009363     -0.010142
Li	      3.88301     12.84468     12.83706         0.056020      0.010199      0.009949
Li	      6.02825     12.77338     14.85185         0.008007     -0.006931     -0.006636
Li	      2.01889     10.96553     13.04622         0.006919     -0.016283     -0.017209
Li	      4.32339     15.02215     19.18820        -0.035816     -0.001145      0.000232
Li	      2.07566     12.60772     14.68906         0.014551      0.019940      0.020011
Ti	      4.02215     17.14855     21.31315         0.062844      0.027388      0.026042
Ti	      6.01532     19.27845     21.35313        -0.049089     -0.028639     -0.029453
Ti	      6.02522      6.36672      8.45110        -0.059744      0.004374      0.009702
Ti	      7.94455     12.83038     16.99747        -0.219544     -0.013382     -0.013684
Ti	      2.08426      6.44817      8.53218         0.047537      0.078594      0.087147
Ti	     -0.00726     10.70907     10.70303         0.036067     -0.102034     -0.101581
O	      6.08886      4.30200      8.47428         0.002807      0.022790      0.033777
O	      3.87022     17.18849     19.26418        -0.053234      0.029261      0.020205
O	      2.03998      4.17199      4.17182         0.042821     -0.039769     -0.041643
O	      4.02362      4.24482      6.32983         0.035568     -0.046387     -0.047855
O	      6.02728      8.65350     12.82282        -0.013379      0.052481      0.054918
O	      4.03683      6.39422      8.47844        -0.019793     -0.012954     -0.016623
O	      1.98924      8.43035      8.42583         0.027661     -0.092751     -0.099276
O	      4.04023      8.65976     10.74147        -0.036715      0.066372      0.067769
O	      6.07253     12.83049     16.99803         0.159812     -0.004810     -0.003268
O	      4.12522     10.58776     12.66995         0.010878     -0.068837     -0.072896
O	      2.05231     12.84067     12.83299        -0.010625      0.003978      0.003505
O	      4.05980     13.02125     15.10001         0.006285      0.137742      0.135566
O	      6.06325     17.19173     21.35504         0.012107      0.032942      0.035322
O	      3.98140     14.94376     17.02292        -0.026002     -0.031212     -0.030364
