# total energy = -205.03594870 eV
 
CRYSTAL
PRIMVEC
-0.000322 4.225498 4.183760 
14.442580 0.105678 14.534252 
4.126408 4.225464 4.183482 
PRIMCOORD
28 1
Li	      4.12869      4.17870      4.27962        -0.000305     -0.000230     -0.023724
Li	      6.19122      8.29544     10.43786         0.000182      0.006279     -0.017096
Li	      8.25427      8.36180     12.49296         0.000533     -0.008903     -0.021841
Li	     10.31760      4.35542     14.54679        -0.000384      0.022258      0.011685
Li	      4.12781      2.26024      6.27624         0.001145      0.008965      0.022391
Li	      6.19111      2.32650      8.33217        -0.000147     -0.006202      0.016109
Li	      8.25430      2.21735     10.30575         0.001126     -0.000338      0.021581
Li	     16.50764      6.37042     18.75574        -0.001617     -0.021700     -0.010478
Ti	     10.31803      4.30412     10.45435        -0.002853     -0.030379     -0.023363
Ti	      8.25452      0.22524      8.35946         0.001414      0.340449      0.045282
Ti	     12.38107      4.39372     16.54866         0.000473      0.058338     -0.049334
Ti	      4.12820      6.17116      6.22546         0.000431     -0.335046     -0.044400
Ti	      2.06445      2.09204      4.13083         0.004446      0.028196      0.023014
Ti	     14.44385      6.33299     16.75368         0.000867     -0.057905      0.049889
O	     16.50754      6.46382     20.74189        -0.004755     -0.019693      0.033161
O	      4.12806      6.35240      8.28594         0.001114      0.005964     -0.000080
O	      6.19094      6.27718     10.32467        -0.002628     -0.120433     -0.073169
O	      8.25479      2.05679      8.32629        -0.000158     -0.381453      0.011316
O	     10.31764      2.33469     10.58465        -0.000373      0.130727      0.086009
O	     12.38094      2.23318     12.53223         0.003324     -0.015602      0.028533
O	     14.44382      6.36425     18.70672         0.003469      0.008024     -0.060286
O	     16.50781      4.16662     18.53402        -0.001224     -0.127991     -0.081518
O	      4.12845      4.34017      6.25932        -0.001635      0.367655     -0.013026
O	      6.19155      4.34420      8.44437        -0.000195      0.123780      0.071135
O	      8.25441      4.26894     10.48317        -0.001682     -0.002782      0.001370
O	     10.31765      4.26302     12.56103         0.003634      0.019557     -0.032220
O	     12.38103      4.36248     14.59595        -0.002652     -0.008239      0.057363
O	     14.44436      4.26807     16.58657        -0.001549      0.016702     -0.028303
