# total energy = -223.11872317 eV
 
CRYSTAL
PRIMVEC
0.007943 10.479034 10.406331 
6.228623 6.278852 12.501209 
4.142034 2.090274 2.090087 
PRIMCOORD
30 1
Li	      6.18763      6.41136     12.49099         0.025074     -0.008056     -0.028232
Li	      2.02829     10.67345     12.47009        -0.006369     -0.011174     -0.017107
Li	      4.17273      4.09587      4.15934         0.006418      0.012556     -0.010610
Li	      2.00522      2.09784      4.05070         0.013854      0.023564      0.017811
Li	      4.16409      6.19064      6.30599         0.001209      0.009998     -0.012696
Li	      4.09700      4.34916      8.32335        -0.006230     -0.000030      0.021686
Li	      6.38451      8.21599     10.52119        -0.011918      0.006924     -0.006928
Li	      8.29566      8.28140     12.54727        -0.014671     -0.006344      0.011348
Ti	      4.17882     10.48000     14.51135         0.024895      0.098123     -0.066268
Ti	      4.15735     12.57262     16.65211         0.110855      0.088364     -0.051481
Ti	      6.22804      6.19075      8.39075         0.004983     -0.045782      0.079008
Ti	      0.02950      6.32901      6.30489        -0.078649      0.001862      0.033735
Ti	      6.24906     14.68991     20.83177        -0.056682      0.059110      0.008987
Ti	      2.06424      8.40209     10.37929        -0.022128     -0.025886      0.004670
Ti	      8.23482     10.36348     14.56071         0.045156     -0.304126     -0.041961
O	      8.28312      8.50864     14.57642        -0.017392      0.280279      0.013091
O	      4.16687     12.46700     14.68851        -0.004928     -0.090151      0.108339
O	      6.26729     12.57673     16.73342        -0.018014     -0.011737      0.001038
O	      8.28877     10.53058     16.64739        -0.009221      0.048861     -0.008601
O	      4.09494      4.08800      6.24392        -0.113431     -0.109061      0.009376
O	      6.18251     14.67207     18.71473         0.030494      0.059324     -0.002452
O	      2.10387      6.23206      6.20100        -0.014375      0.020459      0.004211
O	      4.23179      6.36976      8.35773         0.084940      0.058817     -0.015083
O	      6.25906      6.23145     10.36808        -0.007571     -0.058738     -0.097634
O	      8.31194     14.63580     20.80045        -0.015502     -0.007536     -0.003642
O	      4.16116      8.34800     10.44373        -0.012178      0.004809      0.044300
O	      6.08579      8.50187     12.48934        -0.048869      0.056261     -0.005396
O	      2.16121     10.38678     10.39982         0.094296     -0.105365     -0.017512
O	      4.11481     10.50042     12.50651         0.015912     -0.027356      0.058447
O	      6.21109     10.48342     14.55105         0.000042     -0.017967     -0.030445
