# total energy = -223.16547744 eV
 
CRYSTAL
PRIMVEC
-0.022177 6.337269 6.291631 
10.223419 2.133105 12.525782 
8.182571 2.111296 6.263390 
PRIMCOORD
30 1
Li	      8.08828      8.36054     12.56361         0.015366     -0.018120      0.009816
Li	      6.17602      6.34358     12.51661        -0.015452      0.006694      0.021439
Li	      8.23463      6.37225     14.55865        -0.010319      0.002050     -0.021670
Li	      8.10264      4.20553      8.43891         0.012730     -0.007917      0.017528
Li	     10.16529      4.23326     10.47844         0.011834     -0.009805     -0.021767
Li	      8.25046      2.21530     10.42887        -0.015469      0.015065     -0.005654
Li	      2.03725      4.23561      6.26620         0.008760      0.004595     -0.006486
Li	     14.30170      6.34064     16.73249        -0.004248      0.000085      0.003159
Ti	      1.97508      6.40399      8.31228        -0.012444      0.044716     -0.052187
Ti	      4.14285      6.40124     10.50978         0.061083      0.034382      0.029978
Ti	     12.19796      4.17361     12.48641        -0.047509     -0.023491     -0.023617
Ti	     14.36421      4.17432     14.68180         0.005530     -0.033014      0.036945
Ti	      8.08959      6.30404     10.49185        -0.124481     -0.107645      0.075631
Ti	     12.26160      6.34040     14.62892         0.012507      0.007365     -0.012206
Ti	      8.25357      4.27516     12.50036         0.096608      0.090774     -0.060123
O	     12.23022      4.29085     14.62085        -0.015418      0.034252     -0.009407
O	     14.30088      4.25240     16.70484        -0.013116      0.007480      0.015961
O	      6.06716      2.16594      6.35082        -0.031245      0.014572     -0.016526
O	      8.18002      2.11975      8.35042         0.015429     -0.003660      0.007063
O	     10.27321      8.41200     16.64319         0.026500     -0.016233      0.020168
O	     12.20199      6.42052     16.65203        -0.049805     -0.010445     -0.023152
O	      4.13851      4.15561      6.34230         0.051709      0.010084      0.025529
O	      6.10713      4.14725      8.30563        -0.046341      0.018406     -0.034889
O	      8.16191      4.30837     10.51026         0.025522      0.032372      0.045012
O	     10.22166      4.22410     12.50812        -0.052140      0.007866     -0.002764
O	     12.26290      8.45463     18.81429         0.012051      0.000316     -0.003476
O	      4.10743      6.28521      8.37775         0.015085     -0.047284     -0.004463
O	      6.11878      6.35307     10.48664         0.045335     -0.006198     -0.006748
O	      8.17542      6.26885     12.48371        -0.008860     -0.029649     -0.041411
O	     10.23451      6.43052     14.68779         0.030799     -0.017614      0.038314
