# total energy = -223.64574268 eV
 
CRYSTAL
PRIMVEC
-0.036846 6.221671 6.215115 
10.398141 2.032650 12.409963 
4.139282 4.122753 4.143775 
PRIMCOORD
30 1
Li	      4.12514      4.09051      4.16612         0.003267      0.001891     -0.010378
Li	      1.94746      6.27309      8.23778        -0.044565     -0.006939     -0.005943
Li	     10.26806     10.21142     16.49659         0.022121     -0.044928      0.009907
Li	      4.22458      6.13659      6.26011         0.041198      0.005002      0.009077
Li	      2.08421      2.09525      4.11933        -0.000762     -0.001998      0.008833
Li	      4.07589      2.07626      6.11900        -0.023554      0.011428      0.012338
Li	     12.53116      6.14260     14.57437         0.025100     -0.010646     -0.009021
Li	      6.30173      4.22744     10.41173        -0.016606      0.046037     -0.010222
Ti	      8.19513     10.25772     14.54749        -0.017413     -0.061255      0.043182
Ti	      8.27732      6.22714     14.43460        -0.081686      0.029400     -0.001606
Ti	      6.23709      2.04843      8.27334        -0.014633     -0.009757     -0.002242
Ti	     14.45272     10.30339     20.63902        -0.090480      0.037598     -0.012630
Ti	      6.25804      8.25975     10.41535         0.096400     -0.036454      0.013663
Ti	      8.29178      8.21576     12.47385         0.071567     -0.041268     -0.000343
Ti	      8.37505      4.18165     12.36166         0.022339      0.077835     -0.049525
O	     12.51619     10.31104     20.64504         0.146396     -0.005781     -0.040307
O	      4.15645      8.20900     10.28306         0.010772      0.008408     -0.007131
O	      6.22639      8.30799     12.42069         0.024937      0.001522     -0.041831
O	      8.34491      8.25330     14.58599         0.016659      0.006584     -0.011328
O	     10.47812      8.12094     16.55043         0.037715     -0.088764     -0.005784
O	      2.01540      4.19936      4.21557        -0.007869     -0.005599      0.004878
O	      4.05551      4.13036      6.26301        -0.142890      0.005200      0.035214
O	      6.21236      4.12045      8.31267         0.011781      0.015226     -0.002133
O	      8.30372      4.10946     10.34709         0.001971     -0.001931      0.004097
O	     10.39514      4.09824     12.38121        -0.008965     -0.013804     -0.001637
O	     12.43974      8.22632     18.56346        -0.005996     -0.024400     -0.001317
O	      4.13127      6.21440      8.34518         0.005284      0.027405     -0.004868
O	      6.09355      6.32015     10.35888        -0.037733      0.088423      0.004699
O	      8.22815      6.18750     12.32335        -0.005703     -0.009464      0.025518
O	     10.34402      6.13270     14.48776        -0.038653      0.001028      0.046842
