# total energy = -90.66222039 eV
 
CRYSTAL
PRIMVEC
-4.065157 -0.000022 -0.000018 
0.000012 0.000012 4.174601 
0.000032 8.214180 0.000048 
PRIMCOORD
16 1
Li	     -2.03180      2.00411      0.00159         0.000506     -0.007868      0.000474
Li	     -2.03181      6.21014      0.00188         0.000310      0.024566     -0.000365
Li	     -2.03180      0.10928      2.08898         0.000208      0.053442     -0.000156
Li	     -4.06445      1.99393      2.08902         0.000149     -0.015382     -0.000609
Mn	     -4.06436      0.05772      0.00172        -0.000614      0.063519      0.000153
Mn	     -4.06436      4.03967      0.00185        -0.000570     -0.065445     -0.000631
Ni	     -2.03179      4.06932      2.08916        -0.000858     -0.045697     -0.001113
Ni	     -4.06440      6.19972      2.08919        -0.000337     -0.000806     -0.001257
O	     -2.03179      2.21484      2.08917         0.000755     -0.211021      0.001168
O	     -4.06438      4.14897      2.08911         0.000461     -0.081560     -0.000513
O	     -2.03185      5.97479      2.08914         0.001359      0.199280      0.000093
O	     -4.06436      2.04241      0.00183        -0.000802      0.017938      0.000406
O	     -2.03177      4.07434      0.00187         0.000828      0.006961      0.001195
O	     -4.06433      8.18273      2.08920         0.000487      0.110826     -0.000827
O	     -4.06436      6.15949      0.00184        -0.001233     -0.023892      0.000930
O	     -2.03176      0.01383      0.00173        -0.000649     -0.024859      0.001053
