# total energy = -223.13479463 eV
 
CRYSTAL
PRIMVEC
-0.000196 6.060363 6.314003 
10.340699 4.029541 14.742762 
4.136343 6.060442 6.313796 
PRIMCOORD
30 1
Li	      8.27521     12.13765     16.90821        -0.001199     -0.001856     -0.000877
Li	     10.34329     12.11697     18.96870         0.000114      0.025700      0.004678
Li	     12.40981     12.14366     21.14362         0.001445      0.027499      0.030619
Li	     10.34292      6.12590     16.84265        -0.001268      0.001148      0.007844
Li	     12.41088     14.05890     23.16828         0.000747      0.000011     -0.017746
Li	     10.34362      8.04073     18.86439        -0.001613     -0.021420     -0.032040
Li	      2.06969      4.03788      6.29493         0.000392     -0.021168      0.007460
Li	      4.13814      4.01719      8.35819        -0.000966     -0.003631     -0.005693
Ti	     10.34121     10.08620     21.02071        -0.000542      0.046163     -0.000757
Ti	      6.20612     12.10193     14.81168         0.005103      0.026961      0.009376
Ti	      2.07164      2.05709      4.19540         0.000668      0.000802      0.094275
Ti	      4.13828      2.01707      6.31578         0.001517      0.004208      0.037590
Ti	     10.34121     14.09662     21.07172         0.000919      0.025635     -0.103700
Ti	      6.20678      4.05560     10.45618        -0.005212     -0.064017     -0.057276
Ti	     12.41246     10.09792     18.98574         0.000342     -0.044024      0.009525
O	      2.06996      8.03455      8.52314        -0.000952     -0.132114      0.055301
O	      4.13932      8.08586     10.54837        -0.007748      0.004118     -0.041445
O	      6.20636      8.07783     12.63280         0.001023     -0.003183      0.006149
O	      8.27387      8.06980     14.71649         0.004200     -0.017063      0.022920
O	     10.34290      8.12139     16.74221         0.000471      0.126411     -0.058358
O	     12.41179      8.09845     18.96184        -0.001220      0.046425     -0.010899
O	      4.13847      4.03487      6.30703        -0.003117     -0.003035      0.010203
O	      6.20534     10.05156     14.72330         0.001225     -0.045788      0.057123
O	      8.27481     10.12553     16.88526        -0.001535      0.039639      0.018478
O	     10.34346     10.09449     18.91766        -0.001875      0.008425      0.026296
O	      2.06953      6.06136      6.34726         0.003265     -0.013191     -0.021376
O	      4.13802      6.02903      8.37943         0.001541     -0.027399     -0.012617
O	      6.20687      6.10352     10.54234         0.003917      0.048763     -0.029510
O	      8.27490      6.05963     12.64360         0.000901      0.005779     -0.021925
O	     10.34208     12.08647     21.04544        -0.000544     -0.039797      0.016382
