# total energy = -223.50237841 eV
 
CRYSTAL
PRIMVEC
0.074612 6.228556 6.226788 
10.509218 0.087609 10.413909 
4.204728 2.101904 2.099321 
PRIMCOORD
30 1
Li	      4.18740      2.12400      2.12363         0.011148     -0.005650     -0.010018
Li	      4.28758      6.31579     10.32827        -0.003151      0.000544     -0.009693
Li	     10.59062      8.31638     14.62607        -0.001663     -0.008486      0.002167
Li	     14.63639      4.24052     14.56082        -0.039413      0.002647      0.004175
Li	      2.24525      2.17913      4.04499         0.028175     -0.000709     -0.000008
Li	     12.74892      4.13289     12.58967         0.025383      0.005668     -0.000929
Li	      2.11151      4.26971      6.15308        -0.015956     -0.020920     -0.005231
Li	     12.62427      6.24157     14.68156        -0.012983     -0.005997     -0.018847
Ti	      6.22808      2.11535      4.26003        -0.121320      0.058210      0.074481
Ti	      8.32901      0.14758      8.32223        -0.115509      0.069051      0.050076
Ti	      8.39162      4.21757      8.37996        -0.053450      0.009645      0.005278
Ti	     10.48311      4.26566     10.42036        -0.075361      0.003428      0.001145
Ti	      0.15488      4.10724      4.11649         0.391918     -0.050413     -0.039245
Ti	      4.32559      4.15407      8.33236         0.084616     -0.015992      0.006136
Ti	      6.42593      4.22381     10.36944         0.075842      0.010885     -0.013431
O	     12.62851      2.07733     12.40145        -0.012484     -0.088734     -0.085778
O	      4.28892      2.08755      4.20865         0.154207      0.009693      0.046345
O	      6.29398      2.14129      6.25139        -0.027516     -0.007982     -0.064924
O	      8.39129      2.14182      8.35544        -0.021890     -0.064009     -0.006059
O	     10.59324      2.19577     10.39949         0.152334      0.049152      0.006650
O	      2.00137      4.15554      4.15543        -0.353369     -0.008047     -0.003937
O	      4.22788      4.17608      6.26174        -0.013358      0.023417      0.038342
O	      6.34151      4.27679      8.27141        -0.031687     -0.010354      0.025421
O	      8.44079      4.15350     10.49304        -0.030763      0.019115     -0.011687
O	     10.53049      4.25866     12.48857        -0.008914      0.041015      0.021032
O	      2.22380      6.32050      6.31933         0.035802      0.029922      0.030283
O	      4.18862      6.22385      8.26155        -0.020070     -0.032528     -0.044723
O	      6.43128      6.29903     10.41996         0.008454      0.024330      0.005336
O	      8.53257      6.30948     12.51205         0.013248      0.003259      0.033536
O	     10.49196      6.24913     14.53079        -0.022272     -0.040159     -0.035894
