# total energy = -222.17988817 eV
 
CRYSTAL
PRIMVEC
0.000108 2.089936 2.090673 
10.184887 -0.062862 10.516870 
12.249847 6.297403 6.245026 
PRIMCOORD
30 1
Li	      0.16285      2.00814      2.17372         0.046954     -0.024492      0.023140
Li	     12.14036      1.89740     10.64659         0.025634     -0.023828      0.025453
Li	     14.12490      6.36853      8.26474        -0.023710      0.020548     -0.021188
Li	     16.36504      6.04612     14.85981        -0.002756     -0.009066      0.009782
Li	      6.28695      4.26318      6.18891         0.026515      0.010946     -0.013110
Li	      7.99861      4.11260      4.24958        -0.046172     -0.002956      0.004149
Li	      8.10857      2.26649      6.09484        -0.007657      0.009461     -0.005780
Li	     12.32976      6.41828     10.30556        -0.004235      0.022059     -0.020486
Ti	     14.17085      4.11300     10.52083        -0.032768     -0.106547      0.107902
Ti	      4.06543      2.05259      2.12878        -0.026725     -0.031312      0.027353
Ti	     16.34731      8.33136     12.57323         0.013506      0.209673     -0.201184
Ti	      6.09821     -0.02867      6.30054        -0.004412     -0.003219      0.004595
Ti	     10.21942      6.32504      8.30761         0.036386      0.028572     -0.022299
Ti	      8.12621     -0.02416      8.38821        -0.055856     -0.164635      0.158506
Ti	     10.30829      4.20566     10.42874         0.099399      0.076368     -0.075782
O	      2.16498      2.06422      2.11686         0.133985      0.011732     -0.008444
O	     14.25528      4.12077     12.60419        -0.040403      0.096993     -0.090502
O	     16.26253      6.24170     12.57200        -0.013842     -0.015983      0.020343
O	      4.05828      2.03060      4.24112        -0.019072     -0.068998      0.065707
O	      5.97615      4.15897      4.20242        -0.147304     -0.001978      0.000905
O	     18.35787      6.29263     14.61160         0.140750      0.057563     -0.056389
O	      6.12813      2.02676      6.33548        -0.133486     -0.060688      0.062391
O	      8.31022      4.22025      6.23221         0.176491     -0.007163      0.005010
O	     20.41099      6.28308     16.71369         0.013730      0.051085     -0.049916
O	      8.20033      2.06441      8.39100         0.030150      0.006867     -0.014839
O	     10.21204      4.19328      8.35040         0.037044     -0.087801      0.073211
O	     12.12038      6.31454      8.31902        -0.173383     -0.011320      0.011675
O	     10.16286      2.14657     10.39600        -0.069556      0.068055     -0.053734
O	     12.23300      4.15682     10.47748        -0.044867      0.005467     -0.005450
O	     14.29904      6.16849     10.55632         0.065659     -0.055403      0.038981
