# total energy = -222.94719173 eV
 
CRYSTAL
PRIMVEC
-0.000354 2.077401 2.076096 
31.243775 -0.691146 31.828256 
24.956658 1.577865 23.333038 
PRIMCOORD
30 1
Li	     31.34174      1.42606     33.86505        -0.008157      0.027361     -0.024780
Li	     29.08675      1.49657     27.56896        -0.006560      0.000357     -0.000045
Li	      8.34775      1.90246     10.55728         0.013573      0.021572     -0.021482
Li	     37.44192      1.29200     36.07301        -0.010216     -0.018788      0.019753
Li	     16.70359      1.69982     19.06292         0.002164     -0.000037     -0.003817
Li	     45.69256      1.07890     44.59042         0.008826     -0.032321      0.032329
Li	     49.92638      0.95242     48.87188         0.002293     -0.021187      0.018297
Li	     27.10738      1.55143     29.58574        -0.001965      0.023536     -0.019911
Ti	     26.91286      1.51238     25.48096        -0.134276     -0.059649      0.054776
Ti	      6.28261      1.96809      8.41735         0.020585      0.025328     -0.040541
Ti	     10.41640      1.84730     12.68668         0.000347      0.001646      0.000232
Ti	     39.50535      1.22591     38.21397        -0.005681     -0.018086      0.032471
Ti	     18.87797      1.68347     21.14795         0.135246      0.055482     -0.050973
Ti	     22.97395      1.59162     25.39665         0.074192      0.011348     -0.002343
Ti	     54.06161      0.91332     53.05958        -0.089822     -0.014798      0.007353
O	     33.34862      1.33175     33.96518         0.052984     -0.036040      0.025552
O	     35.31860      1.37771     35.98783        -0.040256      0.070912     -0.064389
O	     37.44111      1.26383     38.18257         0.064286     -0.068220      0.058543
O	     39.59293      1.23999     40.27599        -0.058020      0.074160     -0.066559
O	     41.71576      1.12660     42.47102         0.038063     -0.073136      0.060831
O	     43.68496      1.17281     44.49211        -0.050765      0.034138     -0.023288
O	     14.62094      1.73273     14.87519         0.063090     -0.043075      0.036376
O	     16.63818      1.79501     16.88893        -0.042166      0.032407     -0.044435
O	     18.75509      1.59948     19.15975         0.040716     -0.094055      0.099937
O	     20.82417      1.61109     21.22516        -0.063537      0.002564     -0.003190
O	     22.89437      1.59763     23.31444        -0.000959      0.003254     -0.003027
O	     24.96492      1.58433     25.40394         0.069380     -0.002203      0.003400
O	     27.03411      1.59674     27.46898        -0.039591      0.093590     -0.097845
O	     29.14998      1.40175     29.73870         0.037097     -0.042097      0.053408
O	     31.16997      1.46053     31.75641        -0.070870      0.046037     -0.036633
