# total energy = -220.79648775 eV
 
CRYSTAL
PRIMVEC
0.000071 2.086779 2.086722 
2.086674 -0.000130 2.086924 
32.138771 32.142753 -0.841075 
PRIMCOORD
30 1
Li	     32.11621     32.11850     -0.81879         1.781399      1.780472     -1.782354
Li	      4.23531      4.23472     -0.06390         3.742899      3.743656     -3.741027
Li	     10.90059     10.89689      3.71265        -0.860766     -0.859581      0.852857
Li	     10.48247     10.47850     -0.04275        -0.881931     -0.880464      0.886032
Li	     17.12988     17.13323      3.72712        -4.010248     -4.006041      4.005676
Li	     21.38951     21.39245      3.64105        -1.487201     -1.485468      1.487067
Li	     25.66225     25.66554      3.54518        -0.275520     -0.275718      0.276703
Li	     27.84283     27.84636     -0.71942         1.181901      1.181517     -1.184385
Ti	      2.10608      2.10472     -0.02001         9.473004      9.468348     -9.472283
Ti	      6.36202      6.36258     -0.10435         5.541202      5.528970     -5.541904
Ti	     15.00259     15.00713      3.76876        -8.509113     -8.531667      8.520843
Ti	     19.25861     19.26166      3.68442        -9.129606     -9.123947      9.127689
Ti	     23.52288     23.52590      3.59552        -2.803697     -2.805684      2.807031
Ti	     27.79716     27.80040      3.49928         1.624358      1.627555     -1.628790
Ti	     29.98235     29.98520     -0.77236         5.034385      5.034473     -5.032022
O	      2.12228      2.12051      2.05089         4.002409      4.004948     -3.999788
O	      4.17408      4.17262      2.08562         7.376107      7.373648     -7.376070
O	      6.37007      6.37071      1.97386         6.466753      6.465957     -6.460767
O	      8.34030      8.34139      2.08975         0.164867      0.172087     -0.170619
O	     10.69140     10.68776      1.83476        -1.721952     -1.722648      1.724764
O	     13.02320     13.02674      1.57438        -3.054490     -3.028840      3.030645
O	     14.99487     14.99882      1.68919        -7.146861     -7.152111      7.156277
O	     17.18886     17.19237      1.58014        -7.480844     -7.477957      7.481768
O	     19.24443     19.24742      1.61181        -3.544290     -3.544963      3.545611
O	     21.45107     21.45416      1.49383        -2.752090     -2.751686      2.747204
O	     23.50753     23.51065      1.52444        -0.655788     -0.650006      0.653983
O	     25.72468     25.72799      1.39794        -0.206400     -0.217573      0.215165
O	     27.78268     27.78613      1.42686         2.147838      2.153417     -2.150749
O	     29.99933     30.00199      1.29760         2.383860      2.377684     -2.380130
O	     32.05271     32.05588      1.33054         3.599816      3.601620     -3.598429
