# total energy = -239.95628232 eV
 
CRYSTAL
PRIMVEC
0.000456 8.497620 8.497779 
8.292355 0.069157 8.428892 
4.146211 4.248799 4.249035 
PRIMCOORD
32 1
Li	     10.36596     12.74622     19.01728         0.003578      0.000361     -0.000054
Li	      4.14697      6.47161      6.61650        -0.000021      0.011381     -0.026105
Li	      5.98037      6.42120      8.51038         0.041524      0.005018      0.004641
Li	      4.14552      8.21410      8.39098         0.004711      0.044849     -0.017136
Li	      4.14605      4.52493      8.55999         0.003023     -0.030704      0.012621
Li	      6.22034      4.25077     10.51873        -0.002340     -0.008680     -0.006083
Li	      2.31267      6.42069      8.51156        -0.038174      0.003590      0.004925
Li	      4.14795      6.29855     10.30237        -0.005229     -0.016549      0.035900
Ti	      8.29522      8.64124     16.84159        -0.024937     -0.005390     -0.219517
Ti	      2.17804      8.56965     10.66115         0.102505     -0.012865     -0.004363
Ti	      4.14847      8.61459     12.61473        -0.013032      0.009003      0.052442
Ti	      8.29147      6.32084     10.65678         0.025316     -0.228793     -0.010690
Ti	      6.22505      2.15647      8.42556         0.004898     -0.017112     -0.010879
Ti	      6.11630      8.56915     10.66229        -0.101634      0.002599     -0.031848
Ti	      4.14662     10.52870     10.70764         0.008955      0.033463      0.015034
Ti	     10.36177     10.65361     16.92235        -0.003276     -0.004888      0.008536
O	     10.36993     10.66882     18.98333         0.012409     -0.026241     -0.031520
O	      4.14751      2.18399      4.27379        -0.002144      0.015580      0.018744
O	      6.18493      2.24891      6.40419        -0.045184      0.039936      0.033014
O	      8.29353     10.70442     16.91872         0.003451     -0.035615     -0.001996
O	      2.10839      4.31107      4.33933         0.042771      0.037109      0.041138
O	      4.14720      4.18610      6.27552        -0.001873      0.001056      0.000486
O	      6.22048      4.21969      8.44343         0.016341     -0.023811     -0.030049
O	      8.29311      4.43018     10.49272        -0.002166      0.175446      0.014855
O	     10.36296      6.42020     14.73412        -0.015265     -0.030817     -0.026477
O	      4.14672      6.36942      8.45926        -0.000863      0.004349     -0.001430
O	      6.25475      6.49753     10.65226         0.032321      0.033357      0.027844
O	      8.29374      6.40155     12.72267        -0.006836     -0.003118     -0.044723
O	      2.04025      8.55975      8.58833        -0.030438      0.029484      0.035721
O	      4.14718      8.41894     10.50573        -0.000214      0.003035     -0.000867
O	      6.22044      8.46826     12.69268        -0.010053     -0.024166     -0.025450
O	      8.29345      8.47123     14.94992         0.001875      0.019133      0.183285
