# total energy = -241.07630711 eV
 
CRYSTAL
PRIMVEC
-0.027435 16.760822 16.385854 
4.152527 14.640272 18.452672 
4.159150 6.271601 6.151577 
PRIMCOORD
32 1
Li	      0.10922     16.81932     16.44986         0.025669     -0.013227     -0.021664
Li	      6.15810     23.00473     24.58589         0.009738      0.000024     -0.001697
Li	      6.12582     24.96962     26.72458         0.006133      0.009488     -0.005056
Li	      4.02385     10.40826     10.31994        -0.001406      0.011139     -0.001121
Li	      4.15392     21.02415     24.53113         0.006831      0.012183      0.009999
Li	      4.25658     23.11030     26.56544         0.019110     -0.019414      0.013160
Li	      2.11504      8.45696     10.26137        -0.032070      0.012776      0.010716
Li	      6.21599     16.63214     18.37919         0.014479     -0.000033     -0.001465
Ti	      4.16344     16.75773     20.52069        -0.096199     -0.077921     -0.013764
Ti	      2.13459     20.92645     22.47122         0.100902     -0.009992     -0.156123
Ti	      2.03529     23.05519     24.57979        -0.046815      0.047387     -0.022221
Ti	      4.10411     16.69720     16.37900        -0.074925     -0.064011      0.015888
Ti	      8.18881     33.53015     36.88997        -0.004967     -0.038096      0.028945
Ti	      6.34150     18.77323     20.57838         0.189452     -0.037622      0.122203
Ti	      8.20261     35.64516     38.92835        -0.106438      0.127889      0.033511
Ti	      6.25236     20.89060     22.55450        -0.119180      0.016942      0.014662
O	      2.01662     18.82358     18.43550        -0.070059      0.040520     -0.022036
O	      4.18763     18.88167     20.49046         0.084276     -0.013844      0.004715
O	      1.98800      4.09514      4.10503        -0.020439     -0.026909      0.026930
O	      4.14706     20.92893     22.54945        -0.027131     -0.028670     -0.008853
O	      2.05711      6.24718      6.14880        -0.002877      0.011640      0.018196
O	      4.03099     23.14076     24.58194        -0.050902      0.084651     -0.009189
O	      2.18956      8.30059      8.20001         0.103329     -0.018101      0.020156
O	      4.13088     25.11752     26.64729        -0.001254     -0.017515     -0.027716
O	      6.12446     25.20135     28.70516        -0.046922      0.028280      0.015536
O	      4.19260     27.15388     28.73996         0.022878     -0.026281      0.037810
O	      6.18619     27.23112     30.75839        -0.018266      0.018659     -0.014553
O	      4.20211     12.62247     14.27582         0.008557      0.034254     -0.061732
O	      2.02782     14.63313     14.33243        -0.032604     -0.078502      0.010047
O	      4.14535     14.65911     16.39081         0.031100      0.044046     -0.019876
O	      2.14381     16.67943     16.39247         0.123369      0.015071     -0.019420
O	      4.15717     16.78293     18.45306         0.006634     -0.044809      0.024012
