# total energy = -199.41962436 eV
 
CRYSTAL
PRIMVEC
-0.006622 14.585753 14.439328 
4.201564 12.484702 16.517633 
4.199314 8.328684 8.255110 
PRIMCOORD
28 1
Li	      4.20688     22.95060     22.77143        -0.010072     -0.016265      0.032142
Li	      4.23161     14.57613     18.55067         0.004005      0.027718      0.025645
Li	      4.25072     16.71362     20.65095         0.038757      0.015026     -0.012673
Li	      6.23562     27.13278     28.93393        -0.020748      0.022020      0.004459
Li	      0.05523      6.21471      6.18889         0.014406      0.000126     -0.000298
Li	      6.16648     14.58816     16.55998        -0.048275      0.010728      0.008187
Li	      4.21558     20.79635     24.71250        -0.011040      0.008154     -0.023139
Li	      2.10828      8.27043     10.26182        -0.010865     -0.021197     -0.017168
Li	      6.26726     18.68180     20.61922         0.003219     -0.034347     -0.008538
Ti	      2.25452     14.58214     16.47980         0.296950      0.006153     -0.063137
Ti	      2.12972     16.69426     18.55328         0.094916      0.093257     -0.087731
Ti	      8.34848     31.19751     35.00719        -0.086831     -0.099238     -0.125372
Ti	      4.12711     20.77839     20.69654        -0.131673     -0.063036      0.119966
Ti	      2.14314     12.52782     14.47391         0.048822      0.005239      0.091648
O	      2.08168     16.59240     16.59731         0.007122     -0.072432      0.092119
O	      4.08491     16.73799     18.64619        -0.102069      0.084678     -0.039008
O	      2.16772     18.67641     18.53529         0.070540     -0.071061      0.013462
O	      4.18917     18.85991     20.54433         0.001558      0.110265     -0.015319
O	      6.40246     18.82033     22.72637         0.126593      0.039951     -0.011436
O	      4.33240     20.79711     22.59631         0.068979     -0.000362     -0.161644
O	      6.28751     20.89772     24.67982         0.035142      0.081358     -0.120502
O	      4.28124     22.90682     24.87072         0.024043      0.001232      0.171184
O	      6.22240     22.95196     26.77126         0.005301      0.019314     -0.022689
O	      4.26884     24.91844     26.90343         0.025325     -0.005440      0.035510
O	      6.18313     25.02058     28.88633        -0.019038     -0.016788      0.004285
O	      4.07201     12.39485     14.38573        -0.107320     -0.033845      0.023376
O	      2.09621     14.50643     14.51464         0.026629     -0.090931      0.094228
O	      4.09045     14.57805     16.52882        -0.344377     -0.000278     -0.007556
