# total energy = -199.05297453 eV
 
CRYSTAL
PRIMVEC
0.099742 14.831801 14.192606 
4.305503 10.601188 14.213867 
4.288873 8.501478 8.112190 
PRIMCOORD
28 1
Li	      0.13471     14.86245     14.22965         0.004546      0.030388     -0.011070
Li	      4.41181     12.79767     16.24398         0.029324      0.019718     -0.016076
Li	      2.22690     17.04916     18.28791        -0.027364      0.029352     -0.011226
Li	      4.51384     15.01430     18.25710         0.040623      0.034463      0.005362
Li	      6.36421     27.57620     28.38321        -0.035261      0.006256     -0.007093
Li	      0.07205      6.33343      6.06718         0.027467     -0.020628      0.009894
Li	      6.24182     14.70722     16.25553        -0.030668     -0.020790      0.003645
Li	      4.31925     16.91669     16.24237         0.008242     -0.031228      0.015913
Li	      6.39026     16.89780     18.17795        -0.015468     -0.028696      0.000221
Ti	      2.36006     15.00176     16.17825         0.297243      0.396753     -0.117480
Ti	      4.19535     18.96014     18.18848        -0.353356     -0.347744     -0.014127
Ti	      6.53841     19.06763     20.33702         0.122430     -0.134146      0.164596
Ti	      8.59263     31.82337     34.49575        -0.181611      0.105470     -0.037506
Ti	      2.38996     12.72050     14.22897         0.462618     -0.015910     -0.004188
O	      2.19417     16.82725     16.19688         0.051942     -0.373535      0.000784
O	      4.36895     17.13191     18.27097        -0.041734      0.383748     -0.018612
O	      6.66107     29.69769     32.44159         0.378534     -0.035850     -0.001679
O	      4.47399     19.17492     20.20149         0.028706      0.055610     -0.057216
O	      6.55579     17.07156     20.34096         0.203890      0.117861     -0.007436
O	      4.48327     21.19991     22.30838        -0.002012     -0.014390      0.051585
O	      6.47467     19.22309     22.25041         0.021461      0.087988     -0.176345
O	      4.49573     23.19631     24.44740         0.012146     -0.032069      0.125371
O	      6.45366     21.26190     24.33523        -0.017955      0.021422     -0.048294
O	      4.19283     10.45840     12.15777        -0.174387     -0.141631      0.008404
O	      2.11568     12.67574     12.18951        -0.030188     -0.040732      0.016396
O	      4.21577     12.73044     14.17112        -0.457090     -0.004974      0.015127
O	      2.19341     14.73105     14.27828         0.025765     -0.067049      0.141526
O	      4.20270     14.85796     16.27791        -0.347841      0.020346     -0.030475
