# total energy = -91.53318102 eV
 
CRYSTAL
PRIMVEC
-0.000016 2.047422 2.047456 
8.202994 -0.004669 0.004591 
-0.004646 4.225020 -4.225032 
PRIMCOORD
16 1
Li	      2.10656      2.13448     -0.08745         0.011915     -0.000868      0.000559
Li	      4.26237      4.13260     -0.04020        -0.029464     -0.006413      0.007144
Li	      6.09942      4.13178     -2.08519        -0.026669      0.091153     -0.090366
Li	      6.09772      2.12129     -0.07459        -0.025077     -0.094728      0.095115
Mn	      8.11445      2.05926      2.03516        -0.089386      0.009519     -0.009635
Mn	      4.17050      2.05460      2.04011         0.136095      0.015273     -0.015595
Ni	      8.13410      4.14282     -0.04856         0.110855     -0.010518      0.010863
Ni	      2.07391      4.16345     -2.11634         0.043274     -0.001561      0.001608
O	      6.22690      4.14794     -0.05385        -0.194903     -0.003560      0.003019
O	      8.18073      4.28999     -2.24303        -0.068472      0.049205     -0.049682
O	      6.10962      2.04446      2.05024        -0.035338      0.003709     -0.003986
O	      0.01827      1.98829      0.05877         0.007181     -0.056840      0.056979
O	      1.92523      4.21949     -0.12501         0.072589     -0.100155      0.100371
O	      4.10991      4.31199     -2.26470         0.104221      0.005679     -0.006110
O	      2.08996      6.20251     -2.10787        -0.001105      0.095701     -0.095736
O	      4.09027      1.94588      0.10145        -0.015715      0.004403     -0.004551
