# total energy = -199.12784741 eV
 
CRYSTAL
PRIMVEC
-0.110627 14.726679 14.725424 
4.059313 10.524082 14.689099 
4.059361 12.607261 12.606097 
PRIMCOORD
28 1
Li	      3.98302     12.58281     12.58240        -0.014041     -0.020737     -0.024799
Li	      4.15887     12.68587     16.84953        -0.020069      0.018285      0.018701
Li	      5.89451     29.45224     31.53125        -0.028217      0.004244      0.008578
Li	      4.12439     14.72268     18.88723         0.012123      0.006484      0.006739
Li	      5.96473     31.52115     33.60595        -0.008402     -0.002682     -0.007567
Li	     -0.04507      8.43161      8.43451        -0.000081      0.002697     -0.001493
Li	      5.93741     21.02696     23.10561        -0.003453      0.002450      0.003846
Li	      4.10085     21.02539     25.18873         0.041737      0.012677      0.015171
Li	      6.01755     23.09512     25.17382         0.017402     -0.022511     -0.022740
Ti	      2.06559     14.74349     16.82400         0.427142      0.184474      0.188467
Ti	      3.84753     18.88715     18.88710        -0.416620     -0.087275     -0.085952
Ti	      2.18568      6.34285      8.42659         0.407493      0.096953      0.098220
Ti	      7.88719     35.71708     39.87678        -0.500104     -0.116068     -0.114576
Ti	      2.12801     12.64825     14.72860         0.191494     -0.119522     -0.118545
O	      5.96188     27.23800     31.40110         0.053945     -0.138919     -0.141528
O	      4.04202     16.92581     19.00884        -0.021820      0.115345      0.115146
O	      2.02587     18.91890     18.91929         0.387320      0.008919      0.005624
O	      4.05079     18.82408     20.90727        -0.009521     -0.061218     -0.059938
O	      1.98140      6.40471      6.40620        -0.004608      0.048098      0.045514
O	      3.89646     21.03268     23.11558        -0.392043     -0.008030     -0.010895
O	      1.98909      8.30621      8.30699         0.011988     -0.118651     -0.117368
O	      4.01212     23.23404     25.31175        -0.004187      0.143438      0.148671
O	      6.17972     21.05120     25.21293         0.414272     -0.016270     -0.016708
O	      4.06270     25.16111     27.23968         0.040741     -0.028057     -0.027421
O	      6.00964     23.23441     27.39655         0.015519      0.122108      0.121849
O	      3.98573     12.60068     14.68149        -0.173280     -0.002586     -0.003003
O	      5.96555     25.24527     29.40762         0.008345      0.000948      0.002479
O	      3.88718     14.71963     16.80091        -0.433075     -0.024595     -0.026471
