# total energy = -199.39998733 eV
 
CRYSTAL
PRIMVEC
0.170561 14.261595 14.840028 
4.323089 12.225480 17.006922 
4.152848 2.037648 2.167918 
PRIMCOORD
28 1
Li	      4.34573     12.21331     16.96814        -0.000693      0.005249      0.020127
Li	      4.29214     14.27132     19.01901        -0.010314      0.000527     -0.013600
Li	      2.37237     16.31367     19.03905         0.011993     -0.001565     -0.007530
Li	      2.30851     18.33390     21.22017        -0.001959     -0.002026      0.001367
Li	      6.39803     22.42978     25.57404        -0.014969     -0.005310      0.004384
Li	      4.30673     10.20003     10.75405         0.013347     -0.004659      0.013244
Li	      4.25334     12.21493     12.80601         0.000140      0.001580     -0.018920
Li	      2.25696     10.18660     12.77112         0.006748      0.000580      0.002820
Li	      6.34280     14.26060     17.00420        -0.007998     -0.000466     -0.008387
Ti	      2.21519     14.39131     16.95724        -0.013101      0.154352      0.032164
Ti	      4.14430      6.10301      6.40577        -0.035051      0.009314     -0.034583
Ti	      0.13128      6.10675      6.35940         0.030409     -0.015790      0.047761
Ti	      2.23139      8.28270     10.64771         0.015525      0.152085     -0.017792
Ti	      4.29960     14.11455     14.88769         0.015496     -0.200299     -0.006487
O	      2.04867      2.00314      2.12547        -0.007084     -0.182982     -0.009838
O	      4.40996     16.29168     19.23216         0.103495      0.019807      0.108245
O	      6.29892     16.29665     21.10212        -0.083051      0.008766     -0.108075
O	      4.30096     18.32985     21.30374         0.041260      0.000231      0.018758
O	      2.13777      6.10829      6.38213         0.004128      0.000569     -0.000840
O	      4.46816     20.36856     23.30869        -0.041353      0.006413     -0.024904
O	      2.29966      8.14792      8.67057         0.089030      0.004574      0.115676
O	      4.19002      8.14706     10.54044        -0.114790      0.003316     -0.111978
O	      2.22717     10.15548     10.64079         0.006151     -0.181232      0.008327
O	      4.39108     10.18325     12.90358         0.076799     -0.006655      0.090327
O	      6.44795     24.44891     29.64127        -0.104943     -0.009936     -0.072843
O	      4.29996     12.25042     14.88793         0.001590      0.252912     -0.002869
O	      2.32279     14.25906     14.97227         0.097700     -0.005796      0.069868
O	      4.20811     14.25606     16.87107        -0.078506     -0.003558     -0.094421
