# total energy = -199.33227987 eV
 
CRYSTAL
PRIMVEC
-0.141167 14.974568 14.414847 
4.087559 4.257685 8.217326 
4.006945 12.795091 12.355468 
PRIMCOORD
28 1
Li	      3.92576     12.76474     12.35576        -0.012846      0.000134      0.004371
Li	      4.02299     14.90529     14.47707        -0.003919     -0.023074      0.016940
Li	      1.93101      2.21551      4.07283        -0.024891      0.007225     -0.008823
Li	      0.06795      4.24190      4.16314         0.005756     -0.015989      0.012828
Li	      2.01544      4.27172      6.14472         0.013879      0.012353     -0.001753
Li	      3.97758     12.86357     16.39408        -0.010327      0.030165      0.003486
Li	      4.08027     15.04740     18.47274         0.017552      0.028327     -0.020365
Li	      5.90749     23.43491     24.72353        -0.019713     -0.036692      0.006442
Li	      5.99963     25.52218     26.77913         0.011691     -0.016135      0.000440
Ti	      2.02041     15.00078     16.47151         0.293684     -0.045322      0.010963
Ti	      3.89835     10.69259     14.27494        -0.357507      0.065961     -0.104771
Ti	      2.12931      6.40064      8.24763         0.094552      0.064549     -0.014044
Ti	      5.96642     21.36444     22.65524         0.071191     -0.082824      0.085706
Ti	     -0.11187     12.82972     12.35115         0.030146     -0.045274     -0.025552
O	      1.82715     16.97367     16.40331         0.000046      0.094777     -0.174244
O	      3.99284     17.21250     18.62090         0.004407      0.030652      0.111602
O	      1.98294     19.21888     18.52931         0.378208      0.005577     -0.017656
O	      4.02611     19.09726     20.53337         0.056232     -0.030524      0.012178
O	      6.06104     10.75023     14.46820        -0.040902     -0.092948      0.049042
O	      3.90734     21.34813     22.64056        -0.052321      0.009336      0.000443
O	      1.94361      8.45114      8.22700         0.036038      0.134083      0.086497
O	      3.93801      8.69505     10.26645        -0.187318      0.056031     -0.016909
O	      2.04235     10.53897     10.32198         0.078191     -0.085464     -0.011045
O	      4.02877     10.65325     12.35627         0.000689      0.013443      0.044585
O	      5.94788     17.22299     20.59667        -0.129597      0.071335      0.008101
O	      4.09799     12.61780     14.39716         0.043208     -0.115330     -0.010504
O	      6.03057     19.30757     22.63286         0.032157     -0.034753     -0.042505
O	      3.86849     14.97501     16.46596        -0.328284      0.000381     -0.005455
