# total energy = -199.41039500 eV
 
CRYSTAL
PRIMVEC
-0.021077 4.173774 4.195646 
14.640044 -0.003132 14.614138 
8.362209 2.071923 6.266269 
PRIMCOORD
28 1
Li	     14.63501      4.17846     18.79937         0.014715      0.015499     -0.028602
Li	     10.44773      2.03575      8.38555         0.005944     -0.039577      0.019041
Li	     12.53617      2.07064     10.45337        -0.018168      0.013524      0.010497
Li	     14.61794      6.24289     16.72761        -0.000297     -0.000609     -0.005137
Li	      8.35512      4.17298     12.54019         0.022170     -0.015040     -0.014220
Li	     10.44644      4.20252     14.61132        -0.005871      0.046836     -0.028722
Li	     20.90128      2.05942     18.80680        -0.022099     -0.013956      0.027532
Li	     12.54047      4.15913     12.54690        -0.001964     -0.004143     -0.006774
Li	      8.35181      2.08475     10.43907         0.001125     -0.001356      0.017583
Ti	      0.04507      2.08511      2.15147         0.147044     -0.005628      0.162723
Ti	      2.09406      2.08813      4.19163         0.049921      0.018040      0.022510
Ti	      6.26376      2.08497      8.36031         0.004339     -0.003339      0.007432
Ti	     18.79838      4.15711     18.79824        -0.053127     -0.020327     -0.016394
Ti	     20.84751      4.15619     20.83823        -0.152018      0.008531     -0.162270
O	     16.63053      2.05010     16.80536        -0.221158     -0.010062      0.055005
O	     18.70852      2.18043     18.77079        -0.087388      0.071452     -0.005728
O	      6.28475      2.17490      6.36732        -0.005736      0.093611      0.131480
O	      8.25930      2.17903      8.34116        -0.121445      0.083376      0.005896
O	     10.49181      2.17466     10.54506         0.012061      0.057957      0.079753
O	     12.44837      2.05437     12.62429        -0.059152     -0.004087      0.214017
O	     14.58644      2.13567     14.66758        -0.044364      0.043155      0.046288
O	     16.82335      4.05961     18.83550         0.086682     -0.069445     -0.000892
O	     18.90242      4.18960     20.80014         0.220382      0.007381     -0.058435
O	      6.30623      4.10487      8.32166         0.044311     -0.037871     -0.042383
O	      8.44356      4.18729     10.36587         0.061335      0.005257     -0.218142
O	     10.40070      4.06928     12.44649        -0.013322     -0.067797     -0.079886
O	     12.63231      4.06239     14.64889         0.124621     -0.078145     -0.003122
O	     14.60693      4.06545     16.62144         0.011457     -0.093236     -0.129050
