# total energy = -195.95594878 eV
 
CRYSTAL
PRIMVEC
-0.000021 2.096760 2.097129 
14.837303 -0.182218 14.861883 
10.645057 4.215474 6.269206 
PRIMCOORD
28 1
Li	     10.64653      6.30945      8.36724         0.001284      0.000532      0.000652
Li	      2.47489      2.10215      4.19023        -0.014743      0.014417     -0.014153
Li	     19.32518      3.78495     19.28179        -0.008700      0.010300     -0.009551
Li	      4.50429      2.33746      6.04915         0.019698     -0.012360      0.015456
Li	      6.15869      2.33975      3.94987         0.007027     -0.007624      0.006541
Li	     16.84190      4.19304     12.58348        -0.005384      0.012262     -0.013012
Li	      8.64295      1.93445     10.64812         0.008070     -0.011941      0.013623
Li	     20.97858      3.78813     17.18224        -0.020989      0.011555     -0.016798
Li	     23.00879      4.02027     19.03702         0.013360     -0.014408      0.012259
Ti	     17.17896      4.02049     16.94901         0.696088     -0.091562      0.093831
Ti	      8.30596      2.10773      6.28250        -0.693666      0.074065     -0.077255
Ti	     10.68012      4.21413     10.46706        -0.036494      0.037956     -0.037037
Ti	     12.74299      4.11221     12.66490        -0.010286      0.008878     -0.008890
Ti	     14.80488      1.91344     12.76505         0.038148     -0.041459      0.041060
O	     16.91129      2.10350     16.76932         0.034226      0.137088     -0.139040
O	     18.92601      4.23036     16.73972        -0.641432     -0.056163      0.056924
O	      4.26792      2.05543      4.23422         0.008039      0.006417     -0.004973
O	     21.21552      4.07057     18.99666         0.000344     -0.011106      0.010375
O	      6.55909      1.89674      6.49248         0.638213      0.061025     -0.062077
O	      8.57369      4.02362      6.46325        -0.034280     -0.120770      0.123117
O	      8.71577      2.13840      8.34789         0.169213      0.018663     -0.021153
O	     10.69851      4.10454      8.47897        -0.033700     -0.092521      0.091414
O	     10.72144      2.18079     10.40330         0.094771      0.064083     -0.066183
O	     12.68767      4.04203     10.63835        -0.084681     -0.085296      0.083220
O	     12.79786      2.08638     12.59374         0.076152      0.080733     -0.077247
O	     14.76366      3.94693     12.82932        -0.094189     -0.055973      0.057461
O	     14.78641      2.02318     14.75289         0.034057      0.088520     -0.086647
O	     16.76910      3.99001     14.88350        -0.160147     -0.025314      0.028085
