# total energy = -199.08892947 eV
 
CRYSTAL
PRIMVEC
0.012584 4.165631 4.138798 
14.745313 2.126360 16.557210 
6.314869 2.093531 4.147188 
PRIMCOORD
28 1
Li	     14.78585      2.27437     16.56227         0.011399      0.018763     -0.000845
Li	      2.10352      4.24183      6.18470        -0.022964      0.002900     -0.011929
Li	     16.82770      6.30293     18.67090        -0.014734     -0.008162     -0.003110
Li	     18.94838      6.25438     20.77345        -0.005750      0.009617      0.039902
Li	      6.32996      4.10217      6.18055         0.009381     -0.007412     -0.002190
Li	      4.28049      2.11284      6.18875         0.014504     -0.009258     -0.004255
Li	      6.30144      2.11082      8.25216        -0.017211     -0.012608     -0.006101
Li	     14.78320      4.15007     14.51835         0.022556      0.006301      0.012159
Li	     16.79531      4.10691     16.56468         0.003399     -0.032898      0.000466
Ti	     10.49258      6.21000     12.38573        -0.069463     -0.170729     -0.059154
Ti	      6.31158      4.29913     10.36964        -0.129951      0.381052      0.028276
Ti	     14.74709      6.12158     16.55631         0.096298     -0.416464      0.072524
Ti	      2.04776      2.22386      4.14217        -0.012098      0.415426     -0.075439
Ti	     12.64107      2.25702     14.46199         0.019175      0.160875     -0.025108
O	     16.94698      4.21374     18.73601         0.054014      0.011250      0.094690
O	      4.11962      2.03990      4.08224        -0.033420     -0.027956     -0.042468
O	      6.31800      1.96057      6.23070        -0.008765     -0.426029      0.010402
O	      8.55915      2.10793      8.28938         0.150361     -0.006941     -0.010490
O	     10.66756      6.26445     14.38147         0.098820      0.009090     -0.100103
O	     12.67205      6.27634     16.57852         0.066702      0.015855      0.035428
O	     14.64072      6.30903     18.52793        -0.096185      0.003792     -0.126067
O	     16.83194      6.16836     20.72207         0.013601     -0.420582     -0.001031
O	      4.27413      4.29690      6.32706        -0.036663      0.027737      0.150929
O	      6.33556      4.12052      8.34004         0.010860      0.012431      0.036683
O	      8.37461      4.15448     10.34067        -0.033968     -0.007482     -0.005469
O	     10.40678      4.29735     12.38505        -0.070106      0.214070      0.004405
O	     12.63902      4.13449     14.49884         0.009424     -0.159835     -0.011565
O	     14.78393      4.30097     16.55812        -0.029216      0.417197     -0.000537
