# total energy = -199.05257838 eV
 
CRYSTAL
PRIMVEC
-0.000028 2.077185 2.077287 
4.221332 -0.035750 4.190288 
14.727541 14.618546 -0.078354 
PRIMCOORD
28 1
Li	     14.69124     14.59398     -0.05185        -0.008387     -0.006271      0.005783
Li	      6.36303      4.15750      6.23171         0.009735      0.004835     -0.003772
Li	      4.18913      4.16803     -0.01030        -0.028141     -0.015178      0.013507
Li	      6.24555      6.21675      0.01319        -0.016875     -0.013035      0.018016
Li	     12.63311      8.32060      4.14594         0.000277     -0.004097     -0.001851
Li	     14.80498     12.53035      6.16176         0.012988      0.019272     -0.016460
Li	     12.64668     14.61553      1.99707         0.023462      0.016509     -0.011641
Li	      6.30654      4.14524      2.08772        -0.006407     -0.007437      0.007676
Li	     14.74536     14.60361      4.09121         0.005139      0.005370     -0.002808
Ti	     16.67795     14.58582      2.03593        -0.438777     -0.058114      0.052232
Ti	      4.37462      4.16468      4.14690         0.443092      0.054620     -0.056293
Ti	      8.25446      6.20274      2.10602        -0.498683     -0.085175      0.084148
Ti	     10.52246      8.33765      2.04939         0.000146     -0.007412      0.002754
Ti	     12.79393     12.54520      4.07110         0.507326      0.093143     -0.089752
O	      2.16873      1.97390      2.18203         0.010930     -0.052090      0.053068
O	      4.19014      4.06455      2.16885         0.031198     -0.090570      0.093193
O	      6.44617      6.27205      2.03641         0.499371     -0.017731      0.019614
O	      8.50581      8.27846      2.10783         0.075640     -0.028135      0.024412
O	     10.54752     10.34551      2.11803         0.043782     -0.034889      0.035771
O	     12.60279     12.43993      2.09936         0.027979     -0.101189      0.106668
O	     14.85961     14.62106      1.99939         0.414595     -0.001625     -0.001722
O	      4.15640      2.15553      4.07745        -0.009054      0.057824     -0.051298
O	      6.19306      4.12894      4.18276        -0.423055     -0.003930     -0.004836
O	      8.44569      6.30789      4.07794        -0.021033      0.110467     -0.105822
O	     10.49860      8.40567      4.05801        -0.044544      0.037050     -0.036523
O	     12.53994     10.47128      4.06850        -0.073797      0.023481     -0.022707
O	     14.60196     12.47630      4.14013        -0.506385      0.010913     -0.015813
O	     16.86257     14.68414      4.01256        -0.030521      0.093397     -0.095544
