# total energy = -199.15438949 eV
 
CRYSTAL
PRIMVEC
-0.000066 2.085567 2.085239 
27.933724 -0.283413 29.476370 
3.990415 2.085459 2.085222 
PRIMCOORD
28 1
Li	      0.00475      2.08629      2.08826         0.006328      0.031110     -0.029681
Li	      7.98935      4.10985      8.40622        -0.001395     -0.006922      0.005506
Li	      5.97993     -0.03565      6.29636        -0.002173      0.014574     -0.013166
Li	     13.96173      1.96471     12.63749        -0.002577     -0.017965      0.019982
Li	     11.97931      1.98491     14.69784         0.001541      0.003586     -0.000468
Li	     15.96652      1.92747     18.92604         0.000128     -0.023471      0.023946
Li	     17.95836     -0.13265     18.90286        -0.000319      0.000669      0.000067
Li	     21.94927     -0.21951     23.16198        -0.000101     -0.001183      0.001045
Li	     29.92862      1.77874     29.50653        -0.001556     -0.000345     -0.001034
Ti	      2.04224      2.06703      4.19263         0.101711      0.003711     -0.004915
Ti	     11.89613      2.00858     10.51050        -0.140198     -0.005281      0.005696
Ti	     13.99545      1.94446     16.82435         0.068667      0.014535     -0.016969
Ti	     19.95365     -0.19269     21.04940        -0.000090      0.002428     -0.000991
Ti	     27.93512      1.83812     27.36053        -0.002281     -0.008311      0.010216
O	      1.99203      1.97938      2.19543         0.002306     -0.082531      0.083409
O	      3.97558      2.07207      4.18818        -0.077653     -0.012294      0.011693
O	      5.98428      2.16750      6.17805        -0.000838      0.072911     -0.072581
O	      7.99208      1.91159      8.52005        -0.020270     -0.069067      0.067587
O	     10.00379      2.00810     10.50953         0.149892      0.000537     -0.002549
O	     11.98319      2.10455     12.49804        -0.021249      0.072537     -0.075414
O	     13.96852      1.84598     14.83868        -0.002837     -0.081386      0.081939
O	     15.95534      1.94081     16.82884        -0.048754      0.006315     -0.006880
O	     17.95744      2.03303     18.82219        -0.002509      0.077181     -0.076894
O	     19.95396      1.77959     21.16238        -0.000984     -0.021618      0.022915
O	     21.94924      1.86203     23.16562        -0.000388     -0.016645      0.017197
O	     23.94445      1.86564     25.24774        -0.001851     -0.002396      0.001843
O	     25.93930      1.86850     27.33024        -0.002770      0.018274     -0.019891
O	     27.93406      1.95008     29.33417         0.000219      0.031049     -0.031609
