# total energy = -194.71468877 eV
 
CRYSTAL
PRIMVEC
-0.000026 2.094274 2.094256 
28.155524 -0.264268 29.583611 
28.155646 1.867878 27.451482 
PRIMCOORD
28 1
Li	     28.09328      1.86865     27.44973        -0.121854     -0.000767     -0.000942
Li	      4.17435      2.05865      6.31923         0.043958     -0.002415      0.005218
Li	     34.02973      1.81073     33.79138        -0.045720      0.001740     -0.002450
Li	     10.21233      1.99792     12.65698         0.044973      0.002916      0.000939
Li	     40.06762      1.75481     40.12721        -0.043938     -0.003327     -0.003487
Li	     16.14821      1.94391     18.99636         0.126862     -0.004906      0.000898
Li	     46.02167      1.69579     46.46790         0.075316      0.002258     -0.001115
Li	     50.27651      3.74912     52.79009        -0.002078      0.002282     -0.000097
Li	     26.37602      1.84568     29.56347        -0.070440     -0.000027      0.001292
Ti	      2.01264      2.07962      4.20465         0.149922     -0.000016      0.005281
Ti	      8.04322     -0.07440      8.45204        -0.001590      0.000813      0.001458
Ti	     42.22916      3.82901     44.33359        -0.143463      0.000253     -0.000000
Ti	     48.24140      1.67621     48.58097        -0.514152     -0.001822      0.002045
Ti	     24.15694      1.86198     27.45375         0.487478      0.004875     -0.004983
O	     30.14693      1.83269     31.67547         0.023074     -0.004547     -0.002567
O	     32.01822      1.81117     33.78910        -0.338433      0.001374     -0.000097
O	     34.33197      1.79200     35.90275         0.215528     -0.001554     -0.000139
O	     36.19862      1.77334     38.01577         0.002483     -0.002191      0.001680
O	     38.06552      1.75369     40.12910        -0.214905      0.000001     -0.002010
O	     40.37879      1.73367     42.24063         0.348284      0.003197     -0.001208
O	     42.25065      1.71558     44.35318        -0.025700     -0.001041      0.000199
O	     15.96715      1.96017     16.88322        -0.330625      0.000217      0.000673
O	     18.30016      1.94129     18.99748         0.350133     -0.001449     -0.000757
O	     20.17075      1.92138     21.11112         0.035667      0.000237     -0.001716
O	     22.12044      1.90171     23.22559         0.019568     -0.000209     -0.000210
O	     24.07110      1.88166     25.33973        -0.028627      0.001460      0.000479
O	     25.94240      1.86380     27.45241        -0.354036      0.001003      0.000683
O	     28.27524      1.84846     29.56229         0.312316      0.001643      0.000934
