# total energy = -91.91754276 eV
 
CRYSTAL
PRIMVEC
2.033391 4.157993 2.033395 
2.049469 -4.173956 2.049467 
4.140162 0.000019 -4.140145 
PRIMCOORD
16 1
Li	      2.16008      2.08066     -0.12480         0.009570     -0.000001     -0.011745
Li	      2.06078      0.00166     -2.05913        -0.007976     -0.000808      0.008121
Li	      4.06551      2.08064     -2.03028        -0.000839     -0.000518      0.000796
Li	      2.11441     -2.08533     -0.06312        -0.004973     -0.000912      0.006337
Mn	      0.01353      0.00165     -0.01176         0.036921     -0.000339     -0.038113
Mn	      6.17825     -0.00633     -2.09367         0.039011      0.000624     -0.036800
Ni	      4.09988     -0.00638     -0.01533        -0.015225      0.000834      0.015814
Ni	      4.09696     -2.08531     -2.04574         0.008317     -0.000614     -0.008694
O	      6.25434     -0.02134     -0.13585         0.050639     -0.090344     -0.032339
O	      4.22857      1.98404     -0.01845        -0.159308      0.139100      0.007659
O	      4.22046      0.00877     -2.16971         0.033087      0.090000     -0.052180
O	      3.98238     -0.08295      2.10737        -0.046223      0.012138      0.065485
O	      4.10309     -1.99673     -0.14394        -0.008240     -0.140406      0.159742
O	      6.17692      1.95931     -1.96313         0.002159     -0.064723     -0.126740
O	      1.97722      0.07023      0.10225        -0.064915     -0.010157      0.045614
O	      6.04771     -1.97195     -2.09228         0.127997      0.066126     -0.002956
