# total energy = -235.53392185 eV
 
CRYSTAL
PRIMVEC
-0.065024 16.650102 16.404596 
4.104105 14.533543 18.473879 
4.127414 6.218464 6.160666 
PRIMCOORD
32 1
Li	      4.15032     16.69385     20.57318         0.008341     -0.011080     -0.016326
Li	      6.01998     24.90697     26.67338        -0.028069      0.007098     -0.012129
Li	      6.04955     26.94206     28.74059         0.014147     -0.023557     -0.009267
Li	      4.05561     12.38891     12.34879        -0.005649      0.021739     -0.004112
Li	      8.18460     29.12194     32.87777        -0.013374      0.010871     -0.012911
Li	      4.11539     24.97058     28.66940         0.003546      0.005365      0.004897
Li	      2.08086     10.50813     12.30731        -0.003708      0.000752     -0.001450
Li	      6.18444     18.64185     20.50377         0.015032     -0.014927      0.015460
Li	      2.09731     14.51097     16.39641         0.014257      0.012858     -0.012479
Ti	     -0.04241     16.63852     16.40875         0.014776     -0.074922     -0.002446
Ti	      1.92578     16.65464     18.37979        -0.093273      0.075254     -0.051931
Ti	      4.12879     18.75976     22.56818         0.001124      0.014557     -0.003016
Ti	      2.07465     22.85496     24.58038         0.072795     -0.103919      0.006362
Ti	      2.05880      8.35772     10.30740         0.025831      0.093981      0.080691
Ti	      8.16970     33.20868     36.90040         0.005698      0.036550     -0.003935
Ti	      3.96706     20.74560     20.55815        -0.085668      0.013995      0.021319
O	      2.08178     18.61589     18.46564         0.051916     -0.093750     -0.023260
O	      4.11134     18.70405     20.51029        -0.002995      0.008530     -0.021156
O	      6.16508     18.69314     22.57578         0.059428      0.002643      0.007707
O	      4.07333     20.82289     22.61139        -0.001329      0.013332     -0.022998
O	      6.16917     20.84500     24.64875         0.016044      0.053012      0.055673
O	      4.04734     22.86350     24.66737        -0.032492      0.018491      0.008167
O	      2.02469      8.21998      8.20160         0.010114     -0.033271     -0.003485
O	      3.97261     25.05828     26.66771        -0.061380      0.022517     -0.000827
O	      2.14960     10.31170     10.25953         0.041680     -0.095790     -0.009451
O	      4.06572     27.03119     28.74437         0.008029     -0.013641      0.055158
O	      6.04516     27.10647     30.79669        -0.046852      0.074662     -0.027395
O	      4.16518     12.37171     14.39992         0.012243     -0.044776      0.011099
O	      6.02257     29.18102     32.79412        -0.000199      0.029919     -0.031731
O	      4.13880     14.50627     16.39490         0.009961     -0.007723      0.005517
O	      6.12441     31.15984     34.85722         0.001301     -0.007869      0.002731
O	      4.04241     16.60922     18.46291        -0.011276      0.009098     -0.004475
