# total energy = -235.46138488 eV
 
CRYSTAL
PRIMVEC
-0.045108 8.384214 8.361551 
8.281657 4.183743 12.505345 
8.297379 2.073615 6.248211 
PRIMCOORD
32 1
Li	      8.33931      4.32059     12.56925        -0.004771      0.003040     -0.013420
Li	      8.37496      6.22962     14.46642         0.020900      0.006258      0.006576
Li	     10.38786      4.21615     10.53993        -0.008304      0.019540      0.031900
Li	      4.08737      2.17385      6.25084        -0.004582     -0.000229     -0.003144
Li	      6.15984     10.45882     16.56554        -0.006596      0.008590      0.011358
Li	     10.33120      6.23839     12.49226         0.005905     -0.019817      0.010947
Li	      2.03364      6.32684      8.35799         0.008011      0.004520      0.007364
Li	     12.40030      8.33232     16.74866        -0.007582     -0.000078      0.009497
Li	     14.48173      8.24607     18.75763         0.004656      0.005175      0.003243
Ti	     10.29255     10.35389     16.60290         0.017339     -0.043439     -0.356125
Ti	     12.43001     10.46365     18.81913         0.077925     -0.024423      0.018196
Ti	      6.23068      8.39530     14.54892         0.007033      0.069648     -0.021222
Ti	      8.21995      6.18252     10.41582         0.044911     -0.079935      0.022830
Ti	     12.31405      6.28000     14.57352        -0.222610      0.012106     -0.068826
Ti	      6.26764      4.17588     10.43286         0.011256     -0.044611      0.059503
Ti	      8.20383      8.40932     12.59835        -0.066973      0.025817      0.033066
O	     10.44290      6.17689     14.61326         0.203636     -0.017534     -0.008928
O	     12.46476      6.23896     16.62803         0.004237     -0.043158     -0.037384
O	      6.17120     10.38109     14.52703         0.014805     -0.090581     -0.086664
O	      8.30310     10.42257     16.74307         0.058243     -0.026025      0.019837
O	     10.28598      8.44483     16.70735        -0.047028      0.131413     -0.011210
O	      4.15136      4.27302      6.36599        -0.011728      0.075808      0.110785
O	      6.14033      4.22663      8.38972        -0.006384      0.047727      0.063154
O	      8.32333      4.18078     10.43189        -0.022554      0.030513     -0.009397
O	     10.35627     10.48011     18.73243         0.026271     -0.008628     -0.001268
O	      4.14402      6.20584      8.34367        -0.003481     -0.081308     -0.077435
O	      6.19687      6.24644     10.38160         0.022756     -0.036983     -0.030667
O	      8.23272      6.37820     12.40557         0.002910      0.022592     -0.044738
O	     10.31968     12.56700     21.01716        -0.014363     -0.020190      0.279673
O	      4.04027      8.44704     10.50648        -0.037158      0.035650      0.052246
O	      6.14756      8.34588     12.45258        -0.036864      0.031449      0.039291
O	      8.28224      8.32311     14.62528        -0.029816      0.007092     -0.009040
