# total energy = -235.60120525 eV
 
CRYSTAL
PRIMVEC
0.006400 8.387049 8.075353 
8.295794 2.037524 10.161554 
6.219490 4.177507 6.077806 
PRIMCOORD
32 1
Li	      8.30740     10.41234     18.14188        -0.005507     -0.007436     -0.010368
Li	     10.35518     12.46700     18.18822        -0.012412     -0.028416      0.003257
Li	      8.26032      6.28570     10.21748        -0.011861      0.017389      0.001154
Li	     12.45596      6.23767     14.29020         0.009839     -0.007397      0.023830
Li	      2.10956      4.15229      5.98872         0.012453     -0.018964      0.000795
Li	     12.44211      8.32814     16.22304         0.002605     -0.002649     -0.002238
Li	      8.31710      8.39313     16.25530         0.011221      0.030208     -0.001691
Li	     10.36436     10.44867     16.30220         0.006733      0.009922      0.010213
Li	      6.20971      6.23829     12.07832        -0.009246      0.006924     -0.020809
Ti	      8.29284     12.56683     16.21167         0.008482     -0.078924     -0.023765
Ti	     12.44589     12.52035     20.26091        -0.004353     -0.009630      0.000738
Ti	     14.47859      8.27713     18.21140        -0.009877      0.053774      0.012715
Ti	      4.19886      2.04945      6.00764         0.015315      0.095595     -0.089167
Ti	      6.17116      8.38779     10.19904        -0.025840     -0.097782      0.085852
Ti	      4.18597      4.19819      8.15674         0.022200     -0.056837     -0.017815
Ti	      2.08386      6.25717      8.07091        -0.008262      0.086769      0.020539
O	     10.36111      4.13912     12.17111         0.007916     -0.005343     -0.006629
O	      4.15515     10.48500     12.12647         0.018590     -0.021768      0.054552
O	      6.23714     10.42519     14.14996        -0.025942     -0.012615      0.012991
O	      8.30543     10.55364     16.11986         0.001652      0.037275     -0.100936
O	     10.31931      6.28159     14.14780        -0.042673      0.015403     -0.039496
O	      4.15351      4.02755      6.17024         0.007457     -0.068485      0.085872
O	      6.21983      4.18336      8.15473        -0.025004      0.041390     -0.033833
O	      8.28388      4.14770     10.14765        -0.002526      0.008799      0.030168
O	     10.38196      8.32749     16.22066        -0.001491     -0.010169     -0.028924
O	      4.15045      6.25444      8.05173         0.014397     -0.040959      0.033642
O	      6.21593      6.40967     10.03618        -0.007534      0.067267     -0.082196
O	      8.34548      6.19309     12.22030         0.048579     -0.012260      0.042863
O	     10.36703     10.30918     18.32440        -0.003580     -0.047148      0.097281
O	      4.13901      8.39916     10.13242         0.028799      0.019363     -0.012853
O	      6.22090      8.33912     12.15556        -0.015034      0.027835     -0.049319
O	      8.30428      8.33550     14.19769        -0.005095      0.008867      0.003576
