# total energy = -234.98698462 eV
 
CRYSTAL
PRIMVEC
0.000005 2.069079 2.068881 
16.929688 -0.362547 16.913957 
8.387916 4.061676 4.214333 
PRIMCOORD
32 1
Li	      8.38548      4.05967      4.21493        -0.002170     -0.002592      0.003321
Li	     18.98861      1.73005     16.88882         0.022202     -0.006641      0.008449
Li	     12.64088      5.98321     10.56684        -0.022377      0.004696     -0.003178
Li	      6.32131      4.03311      6.31076        -0.021845     -0.005432      0.004421
Li	      8.47287      1.89849     10.51368        -0.002196     -0.002016      0.001986
Li	     10.70446      3.91376     10.56753         0.031965      0.008080     -0.005126
Li	     12.66501      3.91999     12.63051         0.007621      0.005842     -0.006466
Li	     12.67858     -0.22611     12.63788         0.020516     -0.003345      0.003564
Li	     14.61059      1.85596     12.62565        -0.019884      0.002357     -0.004580
Ti	      2.21365      2.06863      4.13736         0.053142      0.014345     -0.014391
Ti	      4.13339      1.99105      2.14578        -0.028490     -0.010420      0.010806
Ti	     14.61895      3.88621     10.59509        -0.406895     -0.043744      0.044888
Ti	      8.52243      4.01456      8.39749         0.058057     -0.003547      0.006624
Ti	     10.71541      1.88272     12.59831         0.381650      0.055555     -0.055464
Ti	     23.10363      3.70388     19.05268        -0.059210     -0.009961      0.013238
Ti	     16.81804      1.77419     14.77606        -0.067573      0.005233     -0.003399
O	      2.05856      2.04881      2.08810         0.012764     -0.014080      0.014386
O	     21.11042      3.72160     19.03547         0.090717     -0.018344      0.017006
O	      4.25656      2.01312      4.19273        -0.028470      0.038551     -0.041878
O	     23.19700      3.73688     21.08916         0.012153      0.029388     -0.030664
O	      6.47218      1.88203      6.39247         0.053210     -0.022563      0.022174
O	      8.46989      3.98250      6.36087         0.017172     -0.047500      0.046098
O	      8.42229      1.99157      8.35189        -0.007195      0.034243     -0.030532
O	     10.50684      4.02824      8.38518        -0.120460      0.023076     -0.025244
O	     10.55841      1.79858     10.61318        -0.003515     -0.091687      0.095540
O	     12.79340      3.95499     10.52629         0.382615     -0.024484      0.024999
O	     12.53947      1.79854     12.68249        -0.398758      0.028812     -0.029191
O	     14.77713      3.97120     12.57946         0.002465      0.057560     -0.060638
O	     14.80684      1.73132     14.81827         0.086225     -0.003068      0.003514
O	     16.90578      3.78640     14.83286        -0.003725     -0.047634      0.041734
O	     16.80474      1.79948     16.82029        -0.001754      0.020273     -0.024335
O	     18.85335      3.87826     16.80972        -0.037959      0.029049     -0.027662
