# total energy = -90.54627447 eV
 
CRYSTAL
PRIMVEC
-4.178493 -0.000052 -0.000001 
0.000001 0.000051 4.114320 
0.000109 8.275533 0.000060 
PRIMCOORD
16 1
Li	     -2.09002      2.17714      0.00102        -0.000239     -0.043111      0.000638
Li	     -0.00037      4.04246      0.00124         0.000806     -0.055374     -0.001253
Li	     -2.08940      6.07669      0.00112        -0.000252      0.036793      0.000284
Li	     -0.00070      2.20364      2.05804        -0.000256     -0.033537      0.001297
Mn	     -0.00055      0.05414      0.00108         0.000304      0.048288     -0.000353
Mn	     -2.08980      0.06045      2.05827        -0.000099      0.053973      0.000539
Ni	     -2.08964      4.04486      2.05839        -0.000568     -0.036627     -0.000310
Ni	     -0.00029      6.12874      2.05839        -0.000237      0.114571     -0.000490
O	     -2.08990      1.94143      2.05816         0.000578     -0.036524      0.002641
O	     -0.00037      4.17475      2.05846         0.000266     -0.092901     -0.000529
O	     -2.08955      6.35762      2.05842         0.000265      0.008479     -0.001331
O	     -0.00065      1.88007      0.00094         0.000314      0.046789      0.001453
O	     -2.08962      4.11977      0.00128        -0.000044     -0.006000     -0.001281
O	     -0.00042      8.23397      2.05830        -0.000619      0.017568     -0.000126
O	     -0.00031      6.41197      0.00120        -0.000193     -0.029288     -0.000031
O	     -2.08979      0.02831      0.00112        -0.000026      0.006901     -0.001149
