# total energy = -234.62042458 eV
 
CRYSTAL
PRIMVEC
0.000157 2.095250 2.095284 
16.423668 -0.083418 16.846820 
6.165405 4.207697 2.078553 
PRIMCOORD
32 1
Li	      6.05357      4.15344      2.13276         0.016519     -0.013270      0.013108
Li	      4.30967      4.19150      4.19055         0.042100     -0.001107      0.003570
Li	      6.21794      4.25011      6.22802         0.001449      0.002186     -0.004950
Li	      8.23361      4.16733      8.40601         0.000701     -0.003650      0.003112
Li	     10.27637      4.06744     10.59982         0.003599     -0.000400      0.002418
Li	     10.41960      1.97290     12.69417         0.015893      0.003787     -0.000538
Li	     12.16264      1.92595     10.64560        -0.049115      0.002063     -0.002538
Li	     12.13885      0.04227     12.53019        -0.041677     -0.003239      0.004941
Li	     16.50136      4.27979     16.67366         0.000114     -0.000796      0.001470
Ti	     18.38430      2.01385     16.84463        -0.115043     -0.053872      0.052020
Ti	      1.95982      0.05615      2.04019        -0.342604      0.016018     -0.017799
Ti	      4.14608      2.08668      6.29463         0.021323     -0.022734      0.026252
Ti	     12.29825      4.17423      8.39903        -0.039935      0.008245     -0.010117
Ti	      8.33786      1.98958     10.58184         0.440135      0.034843     -0.029919
Ti	     14.35140      2.03101     12.63752         0.006237     -0.000729     -0.002186
Ti	     14.45409      2.03939     16.81955         0.062422      0.022633     -0.019800
O	      2.08969      2.11646      2.07490         0.002747      0.002325     -0.008264
O	     20.47733      4.17218     18.87838        -0.020226      0.018364     -0.016358
O	      4.08920      2.05166      4.23486        -0.027460     -0.015815      0.016073
O	      6.28234      4.20489      4.17737         0.340868      0.023799     -0.020457
O	      6.19256      2.03136      6.35123        -0.051783     -0.040370      0.034708
O	      8.28670      4.28259      6.19541         0.056953      0.011744     -0.012538
O	      8.15462      1.97352      8.50286        -0.043175     -0.023455      0.027688
O	     10.25506      4.23927      8.33320         0.053425      0.045186     -0.046256
O	     10.14844      2.05539     10.51636        -0.434499     -0.023022      0.021581
O	     12.34488      4.25159     10.41628         0.033070      0.046179     -0.042746
O	     12.44482      2.03039     12.63704         0.157294     -0.011013      0.008467
O	     14.31749      4.15575     12.60733        -0.002482      0.005144     -0.008870
O	     14.36687      2.00577     14.75749         0.009259     -0.017503      0.013950
O	     16.25759      4.14918     14.70905        -0.164742     -0.010019      0.006640
O	     16.42014      2.00348     16.85467         0.006215      0.008131     -0.004852
O	     18.53589      4.05560     16.89694         0.062419     -0.009654      0.012191
