# total energy = -235.47634017 eV
 
CRYSTAL
PRIMVEC
-0.091797 33.148145 32.950380 
2.058514 4.139116 6.176850 
2.042093 16.584957 14.398869 
PRIMCOORD
32 1
Li	      1.96708     37.28820     39.12693        -0.009470     -0.003868      0.004922
Li	      2.06390      6.29092      8.19102         0.014442      0.004468     -0.010791
Li	      0.06058      6.27822      6.28009         0.049966      0.015132     -0.014201
Li	      2.09668     12.44520     14.27760         0.000070     -0.001163     -0.025226
Li	      0.04406     12.45646     12.35728         0.022994      0.012130     -0.010491
Li	      3.96457     41.41805     41.16903        -0.016051     -0.016689      0.006770
Li	      1.90975     41.42810     39.25215         0.002284      0.006411      0.018931
Li	      3.94728     47.59700     47.24693        -0.048801     -0.017264      0.007171
Li	      1.94603     47.58324     45.33513        -0.013953     -0.007353      0.011039
Ti	      2.07291      8.31135     10.22092         0.002697      0.014000     -0.240614
Ti	      2.05305     26.88989     24.78946         0.034824     -0.070823      0.070425
Ti	      0.01223     14.53472     14.47513         0.147013      0.046776      0.056082
Ti	      2.01206     20.71641     22.65439         0.003476     -0.027220     -0.023328
Ti	      3.99508     39.33754     39.04938        -0.133223     -0.026069     -0.022293
Ti	      1.95641     26.98364     28.73807        -0.067080      0.065381     -0.083823
Ti	      1.93588     45.56315     43.30433        -0.011052     -0.011387      0.259241
O	      2.04750     35.16387     34.94269         0.065902     -0.036121     -0.021482
O	      2.02606     37.32617     37.04974         0.051876      0.038832     -0.005514
O	      2.06247     39.39295     39.01386         0.130928     -0.006915     -0.046046
O	      1.95898     41.43343     41.31625         0.011301      0.018460      0.295786
O	      2.04999     10.36261     10.28809         0.002363      0.004874      0.000441
O	      2.04887     12.44059     12.21008        -0.007444     -0.019814     -0.303091
O	      1.94575     14.48102     14.51285        -0.140672      0.005196      0.046533
O	      1.98219     16.54757     16.47654        -0.048800     -0.037171      0.010173
O	      1.96039     18.71021     18.58365        -0.059378      0.035353      0.025719
O	      2.05250     20.69301     20.57985        -0.024524     -0.060297     -0.035601
O	      1.97297     22.79932     22.63716        -0.050209     -0.027034      0.037056
O	      2.06574     24.83838     24.74557         0.028263      0.024903      0.006011
O	      2.00401     26.93690     26.76299         0.000860     -0.000643      0.001829
O	      1.94266     29.03557     28.78013        -0.023296     -0.013738     -0.006846
O	      2.03503     31.07504     30.88753         0.064240      0.042857     -0.042062
O	      1.95611     33.17964     32.94700         0.020451      0.048799      0.033281
