# total energy = -58.32740977 eV
 
CRYSTAL
PRIMVEC
0.000164 1.994000 1.993315 
3.920949 -2.018552 2.018192 
1.915375 1.986621 -3.979088 
PRIMCOORD
8 1
Li	      0.09951      0.01502     -0.01807        -0.842154      0.019298     -0.091321
Li	      1.74506      1.86807      0.02269        -0.559048      0.239990      0.207262
Ti	      3.62087      1.84385     -1.84407         1.804767      0.473940     -2.192463
Ti	      3.76815      0.01192     -0.01319         1.825340     -1.867261     -0.786302
O	      3.66930      0.02243      1.87027         1.281042     -1.549663      2.892880
O	      1.83156      1.88716     -1.88695        -2.166199      0.699933     -1.051411
O	      1.89869     -0.05528      0.05306        -2.159238     -0.165817     -0.269726
O	      3.69403      1.87517      0.01831         0.815491      2.149580      1.291080
