# total energy = -58.74717927 eV
 
CRYSTAL
PRIMVEC
0.000164 2.004495 2.003807 
3.941585 -2.029176 2.028814 
1.925456 1.997077 -4.000030 
PRIMCOORD
8 1
Li	      0.10055      0.01518     -0.01826        -0.715813      0.016754     -0.079429
Li	      1.76348      1.88779      0.02293        -0.482009      0.198091      0.170443
Ti	      3.65909      1.86331     -1.86353         1.463439      0.377578     -1.824895
Ti	      3.80792      0.01204     -0.01333         1.521548     -1.546005     -0.655278
O	      3.70802      0.02266      1.89001         1.127912     -1.365594      2.489926
O	      1.85089      1.90708     -1.90687        -1.793683      0.618043     -0.914253
O	      1.91874     -0.05586      0.05362        -1.832291     -0.115296     -0.248607
O	      3.73301      1.89496      0.01851         0.710898      1.816429      1.062094
