# total energy = -59.10595305 eV
 
CRYSTAL
PRIMVEC
0.000165 2.014989 2.014298 
3.962222 -2.039800 2.039436 
1.935537 2.007533 -4.020973 
PRIMCOORD
8 1
Li	      0.10161      0.01534     -0.01845        -0.600267      0.011218     -0.069309
Li	      1.78199      1.90761      0.02317        -0.410040      0.162287      0.137794
Ti	      3.69750      1.88287     -1.88309         1.161412      0.294750     -1.497722
Ti	      3.84789      0.01217     -0.01347         1.256677     -1.259274     -0.539915
O	      3.74695      0.02290      1.90985         0.975678     -1.185075      2.113553
O	      1.87031      1.92710     -1.92689        -1.461000      0.538943     -0.786678
O	      1.93888     -0.05645      0.05418        -1.532017     -0.077581     -0.223651
O	      3.77221      1.91485      0.01870         0.609557      1.514733      0.865929
