# total energy = -59.40762969 eV
 
CRYSTAL
PRIMVEC
0.000166 2.025484 2.024789 
3.982859 -2.050424 2.050058 
1.945618 2.017989 -4.041915 
PRIMCOORD
8 1
Li	      0.10267      0.01550     -0.01864        -0.498545      0.010950     -0.056712
Li	      1.80060      1.92753      0.02342        -0.342742      0.127646      0.109590
Ti	      3.73612      1.90254     -1.90276         0.900224      0.223610     -1.207299
Ti	      3.88808      0.01230     -0.01361         1.027052     -1.005476     -0.436051
O	      3.78609      0.02314      1.92980         0.830146     -1.009192      1.763422
O	      1.88985      1.94723     -1.94701        -1.173229      0.465655     -0.662122
O	      1.95913     -0.05704      0.05475        -1.259579     -0.050381     -0.198575
O	      3.81160      1.93485      0.01890         0.516674      1.237188      0.687748
