# total energy = -59.65711807 eV
 
CRYSTAL
PRIMVEC
0.000167 2.035979 2.035280 
4.003495 -2.061048 2.060680 
1.955699 2.028445 -4.062858 
PRIMCOORD
8 1
Li	      0.10374      0.01566     -0.01884        -0.402607      0.011244     -0.049549
Li	      1.81931      1.94756      0.02366        -0.281037      0.097706      0.084534
Ti	      3.77494      1.92230     -1.92253         0.675656      0.165896     -0.957119
Ti	      3.92848      0.01242     -0.01375         0.822358     -0.784549     -0.341269
O	      3.82542      0.02338      1.94985         0.691137     -0.842885      1.444371
O	      1.90948      1.96746     -1.96724        -0.916771      0.391598     -0.547781
O	      1.97948     -0.05763      0.05532        -1.016263     -0.026471     -0.172825
O	      3.85120      1.95495      0.01910         0.427528      0.987461      0.539637
