# total energy = -59.85824786 eV
 
CRYSTAL
PRIMVEC
0.000168 2.046474 2.045771 
4.024132 -2.071672 2.071302 
1.965780 2.038901 -4.083801 
PRIMCOORD
8 1
Li	      0.10481      0.01582     -0.01903        -0.317308      0.009816     -0.042689
Li	      1.83812      1.96769      0.02390        -0.222821      0.072067      0.067049
Ti	      3.81395      1.94217     -1.94240         0.490312      0.120843     -0.742653
Ti	      3.96908      0.01256     -0.01390         0.642437     -0.593746     -0.254874
O	      3.86496      0.02362      1.97000         0.559278     -0.682636      1.151546
O	      1.92922      1.98780     -1.98757        -0.695330      0.319942     -0.441741
O	      1.99994     -0.05823      0.05588        -0.798307     -0.012841     -0.147801
O	      3.89101      1.97516      0.01929         0.341739      0.766555      0.411164
