# total energy = -60.01548111 eV
 
CRYSTAL
PRIMVEC
0.000169 2.056968 2.056262 
4.044768 -2.082296 2.081924 
1.975861 2.049357 -4.104743 
PRIMCOORD
8 1
Li	      0.10589      0.01598     -0.01923        -0.238460      0.010504     -0.036758
Li	      1.85702      1.98792      0.02415        -0.170914      0.051338      0.051490
Ti	      3.85317      1.96214     -1.96237         0.335331      0.081430     -0.552460
Ti	      4.00989      0.01268     -0.01404         0.486187     -0.427508     -0.181752
O	      3.90470      0.02386      1.99026         0.434949     -0.525091      0.880955
O	      1.94906      2.00824     -2.00801        -0.502218      0.248157     -0.341550
O	      2.02050     -0.05882      0.05646        -0.602546     -0.003929     -0.120647
O	      3.93102      1.99547      0.01949         0.257671      0.565099      0.300722
