# total energy = -60.13127009 eV
 
CRYSTAL
PRIMVEC
0.000170 2.067463 2.066753 
4.065405 -2.092920 2.092546 
1.985942 2.059813 -4.125686 
PRIMCOORD
8 1
Li	      0.10697      0.01615     -0.01943        -0.167867      0.010584     -0.030710
Li	      1.87601      2.00826      0.02440        -0.124917      0.030701      0.041437
Ti	      3.89259      1.98221     -1.98245         0.204098      0.038316     -0.377241
Ti	      4.05092      0.01281     -0.01418         0.349641     -0.278197     -0.127389
O	      3.94465      0.02411      2.01062         0.312824     -0.376724      0.630566
O	      1.96900      2.02878     -2.02855        -0.339244      0.184789     -0.250313
O	      2.04117     -0.05943      0.05704        -0.421948     -0.002566     -0.090144
O	      3.97124      2.01588      0.01969         0.187413      0.393097      0.203793
