# total energy = -90.45098827 eV
 
CRYSTAL
PRIMVEC
0.000049 2.089406 2.089382 
8.391158 0.000086 0.000010 
0.000032 4.187829 -4.187795 
PRIMCOORD
16 1
Li	      2.30245      2.09403     -0.00349        -0.028177     -0.001076      0.000097
Li	      4.19296      2.10936     -2.10872         0.003842     -0.012266      0.013562
Li	      6.08169      4.18781     -2.09735         0.051806     -0.000639      0.000659
Li	      4.19434      4.17743     -4.17580         0.001519      0.014764     -0.015562
Mn	      8.38878      0.00288     -0.00133         0.030642     -0.003164      0.001757
Mn	      8.38982      2.09680     -2.09531         0.006542     -0.000135     -0.000963
Ni	      6.18986      2.09448     -0.00355         0.060492      0.003974     -0.003009
Ni	      2.19709      4.18818     -2.09753        -0.041135      0.003805     -0.003380
O	      6.47784      2.04364     -2.04215         0.028250      0.105102     -0.105641
O	      8.36949      4.18846     -2.09753        -0.049561      0.000372     -0.000995
O	      6.47780      0.05615     -0.05451         0.020358     -0.108219      0.109168
O	      0.02340      2.09444     -0.00360         0.022577      0.000398     -0.000665
O	      1.91157      2.15051     -2.14921        -0.031323     -0.114613      0.116351
O	      4.14378      4.18819     -2.09769         0.108997     -0.001029      0.001224
O	      1.91155      4.13665     -4.13535        -0.038788      0.114117     -0.113536
O	      4.24834      2.09445     -0.00367        -0.146041     -0.001390      0.000932
