# total energy = -60.20863805 eV
 
CRYSTAL
PRIMVEC
0.000170 2.077958 2.077244 
4.086041 -2.103544 2.103168 
1.996022 2.070269 -4.146628 
PRIMCOORD
8 1
Li	      0.10806      0.01631     -0.01963        -0.104466      0.013196     -0.025525
Li	      1.89511      2.02870      0.02465        -0.083114      0.013401      0.031510
Ti	      3.93221      2.00239     -2.00262         0.094234     -0.001958     -0.218522
Ti	      4.09214      0.01295     -0.01433         0.234784     -0.145109     -0.087837
O	      3.98479      0.02436      2.03108         0.193926     -0.235240      0.398344
O	      1.98904      2.04943     -2.04920        -0.202300      0.118771     -0.163423
O	      2.06195     -0.06003      0.05762        -0.251561     -0.005738     -0.059706
O	      4.01165      2.03640      0.01989         0.118496      0.242677      0.125159
