# total energy = -60.19013800 eV
 
CRYSTAL
PRIMVEC
0.000174 2.119937 2.119209 
4.168588 -2.146040 2.145657 
2.036346 2.112092 -4.230399 
PRIMCOORD
8 1
Li	      0.11247      0.01698     -0.02042         0.087714      0.029673     -0.015244
Li	      1.97245      2.11149      0.02565         0.054238     -0.034756      0.019005
Ti	      4.09269      2.08411     -2.08435        -0.141118     -0.129111      0.241426
Ti	      4.25916      0.01347     -0.01491        -0.069693      0.205279     -0.011704
O	      4.14743      0.02535      2.11398        -0.238866      0.289938     -0.382848
O	      2.07022      2.13307     -2.13283         0.119553     -0.121217      0.140835
O	      2.14610     -0.06248      0.05997         0.292807     -0.063033      0.093760
O	      4.17538      2.11951      0.02070        -0.104634     -0.176773     -0.085230
