# total energy = -60.02042755 eV
 
CRYSTAL
PRIMVEC
0.000176 2.140926 2.140191 
4.209861 -2.167288 2.166901 
2.056508 2.133004 -4.272284 
PRIMCOORD
8 1
Li	      0.11471      0.01731     -0.02083         0.160838      0.038811     -0.017652
Li	      2.01170      2.15351      0.02616         0.102054     -0.045993      0.020455
Ti	      2.11763     -0.00742      2.14645        -0.159375     -0.164273      0.367440
Ti	      4.34391      0.01374     -0.01521        -0.137929      0.273747      0.007711
O	      4.22996      0.02585      2.15605        -0.420622      0.534854     -0.693811
O	      2.11141      2.17552     -2.17527         0.160871     -0.234092      0.273683
O	      2.18881     -0.06372      0.06116         0.496528     -0.117945      0.179818
O	      4.25847      2.16169      0.02111        -0.202367     -0.285109     -0.137645
