# total energy = -59.76740711 eV
 
CRYSTAL
PRIMVEC
0.000177 2.161916 2.161174 
4.251134 -2.188536 2.188145 
2.076670 2.153916 -4.314169 
PRIMCOORD
8 1
Li	      0.11697      0.01765     -0.02124         0.217519      0.055228     -0.024106
Li	      2.05134      2.19594      0.02668         0.145022     -0.054910      0.027167
Ti	      2.17971      0.01355      2.14645        -0.132000     -0.187834      0.436554
Ti	      4.42950      0.01401     -0.01551        -0.159258      0.303447      0.011356
O	      4.31331      0.02636      2.19853        -0.577519      0.761359     -0.949539
O	      2.15301      2.21839     -2.21813         0.136379     -0.339116      0.394017
O	      2.23194     -0.06498      0.06237         0.658995     -0.200011      0.274149
O	      4.34238      2.20428      0.02153        -0.289138     -0.338162     -0.169598
