# total energy = -59.61414838 eV
 
CRYSTAL
PRIMVEC
0.000178 2.172410 2.171665 
4.271771 -2.199160 2.198767 
2.086751 2.164372 -4.335111 
PRIMCOORD
8 1
Li	      0.11811      0.01783     -0.02145         0.240718      0.063570     -0.028501
Li	      2.07131      2.21732      0.02693         0.163702     -0.057483      0.033823
Ti	      2.21105      0.02419      2.14629        -0.114404     -0.203077      0.465270
Ti	      4.47261      0.01415     -0.01566        -0.149669      0.313687      0.000369
O	      4.35528      0.02662      2.21992        -0.651028      0.871301     -1.066416
O	      2.17397      2.23998     -2.23972         0.106342     -0.389649      0.448480
O	      2.25366     -0.06561      0.06298         0.733803     -0.247419      0.323713
O	      4.38464      2.22573      0.02174        -0.329465     -0.350930     -0.176739
