# total energy = -59.44485050 eV
 
CRYSTAL
PRIMVEC
0.000179 2.182905 2.182156 
4.292407 -2.209783 2.209389 
2.096832 2.174828 -4.356054 
PRIMCOORD
8 1
Li	      0.11925      0.01800     -0.02165         0.263947      0.071563     -0.035002
Li	      2.09137      2.23879      0.02720         0.178259     -0.060635      0.037888
Ti	      2.24260      0.03493      2.14604        -0.091783     -0.211537      0.479216
Ti	      4.51593      0.01428     -0.01581        -0.128117      0.311757     -0.013968
O	      4.39747      0.02688      2.24143        -0.710841      0.982957     -1.179189
O	      2.19503      2.26167     -2.26141         0.060800     -0.438278      0.502172
O	      2.27549     -0.06625      0.06359         0.801002     -0.293563      0.378082
O	      4.42710      2.24729      0.02195        -0.373267     -0.362263     -0.169200
