# total energy = -59.26156986 eV
 
CRYSTAL
PRIMVEC
0.000180 2.193400 2.192647 
4.313044 -2.220407 2.220011 
2.106913 2.185284 -4.376997 
PRIMCOORD
8 1
Li	      0.12040      0.01817     -0.02187         0.282187      0.079666     -0.041885
Li	      2.11152      2.26037      0.02746         0.189874     -0.061896      0.045512
Ti	      2.27434      0.04577      2.14568        -0.062985     -0.211870      0.478329
Ti	      4.55946      0.01442     -0.01596        -0.097595      0.298180     -0.027608
O	      4.43985      0.02714      2.26303        -0.767950      1.088827     -1.284017
O	      2.21618      2.28347     -2.28321         0.006004     -0.488746      0.555178
O	      2.29742     -0.06689      0.06420         0.863439     -0.345296      0.433942
O	      4.46978      2.26895      0.02216        -0.412973     -0.358866     -0.159450
