# total energy = -92.32016882 eV
 
CRYSTAL
PRIMVEC
2.035040 4.250842 2.035061 
2.034999 -4.250919 2.035007 
4.077510 0.000031 -4.077540 
PRIMCOORD
16 1
Li	      2.03573      2.12312     -0.00218        -0.000543     -0.002530     -0.000174
Li	      4.07277      4.24755     -0.00408        -0.000423     -0.000793      0.000189
Li	      4.07454      2.12290     -2.04089        -0.000715     -0.001877     -0.000311
Li	      6.11149     -0.00235     -2.04282        -0.000870     -0.001319     -0.000234
Mn	      6.11159      4.24798     -2.04273        -0.000722      0.003827     -0.000450
Mn	      4.07269     -0.00279     -0.00411        -0.000093      0.002766      0.000302
Ni	      4.07091      2.12253      2.03293         0.001116      0.001484      0.000043
Ni	      6.10970      2.12258     -0.00588         0.000583      0.000822      0.000860
O	      6.10964      0.03891     -0.00589         0.000162     -0.074384     -0.000543
O	      4.10270      1.92768      0.02592        -0.096782     -0.087003     -0.097561
O	      4.07468     -0.04455     -2.04093         0.000494      0.075073      0.000338
O	      4.07088      0.03887      2.03285         0.000120     -0.074805     -0.000681
O	      4.04284     -1.93305     -0.03397         0.098082      0.085450      0.098433
O	      6.14144      2.31770     -2.01285        -0.098413      0.085210     -0.098603
O	      2.03589     -0.04462     -0.00217         0.000586      0.075236      0.000234
O	      6.08162     -2.32334     -2.07273         0.097419     -0.087158      0.098157
