# total energy = -87.49082698 eV
 
CRYSTAL
PRIMVEC
1.947500 4.017527 1.947496 
3.935211 -2.031078 -1.942492 
1.942499 2.031110 -3.935122 
PRIMCOORD
12 1
Li	      0.04966      0.00141     -0.04729        -1.231370     -0.257798      0.357932
Li	      1.86722      1.91718     -0.00587        -0.420800      0.162817      0.905165
Li	      1.82630      0.00029     -1.82367        -0.550016     -0.448825     -0.235401
Ti	      3.70419      1.91794     -1.84161        -0.319027      0.716761      1.216079
Ti	      3.74422      0.00027     -3.74192         0.901230     -2.069073     -2.983659
Ti	      5.64465      1.91819     -3.78232         2.900918     -0.072324     -1.955370
O	      3.74985     -0.00275     -1.87762         0.160171     -2.735356      1.336030
O	      5.57863      1.92187     -1.90786         3.221818     -0.356756      1.729230
O	      3.77029      1.91532     -3.71591        -2.066915      2.383458     -3.395960
O	      3.74359      1.90016      0.01174         0.267544      0.907947      3.089106
O	      1.85048      1.93693     -1.88136        -2.719148     -0.779045     -0.144575
O	      3.73994      3.83993     -1.88775        -0.144403      2.548194      0.081423
