# total energy = -89.96423208 eV
 
CRYSTAL
PRIMVEC
1.998482 4.122698 1.998478 
4.038227 -2.084247 -1.993343 
1.993350 2.084281 -4.038136 
PRIMCOORD
12 1
Li	      0.05229      0.00149     -0.04980        -0.448466     -0.133786      0.130473
Li	      1.96626      2.01887     -0.00619        -0.140519      0.074651      0.348871
Li	      1.92317      0.00031     -1.92040        -0.205299     -0.163088     -0.104078
Ti	      3.90066      2.01967     -1.93930        -0.089236      0.218265      0.516134
Ti	      3.94282      0.00028     -3.94039         0.236456     -0.730382     -1.039580
Ti	      5.94406      2.01993     -3.98294         1.120982      0.073208     -0.683262
O	      3.94875     -0.00289     -1.97721         0.026765     -0.971904      0.350444
O	      5.87453      2.02381     -2.00905         1.127565     -0.195083      0.594467
O	      3.97027      2.01691     -3.91300        -0.726170      0.802102     -1.232201
O	      3.94215      2.00095      0.01237         0.073035      0.393954      1.066734
O	      1.94863      2.03967     -1.98115        -0.931931     -0.347996     -0.010957
O	      3.93831      4.04360     -1.98788        -0.043183      0.980059      0.062955
