# total energy = -90.19544508 eV
 
CRYSTAL
PRIMVEC
2.008678 4.143732 2.008674 
4.058830 -2.094881 -2.003513 
2.003520 2.094915 -4.058738 
PRIMCOORD
12 1
Li	      0.05283      0.00150     -0.05031        -0.320618     -0.104571      0.090138
Li	      1.98637      2.03953     -0.00625        -0.098725      0.056942      0.254719
Li	      1.94284      0.00031     -1.94004        -0.151085     -0.118324     -0.076047
Ti	      3.94057      2.04033     -1.95914        -0.068903      0.149811      0.390834
Ti	      3.98316      0.00028     -3.98071         0.156272     -0.517301     -0.742014
Ti	      6.00486      2.04059     -4.02369         0.820487      0.071255     -0.490508
O	      3.98914     -0.00292     -1.99744         0.013358     -0.693716      0.228122
O	      5.93463      2.04451     -2.02960         0.802914     -0.147063      0.417793
O	      4.01089      2.03755     -3.95303        -0.517461      0.564468     -0.889824
O	      3.98248      2.02142      0.01250         0.046110      0.288682      0.766639
O	      1.96856      2.06054     -2.00141        -0.657031     -0.255058      0.001645
O	      3.97860      4.08497     -2.00821        -0.025318      0.704875      0.048504
