# total energy = -90.35341222 eV
 
CRYSTAL
PRIMVEC
2.018875 4.164766 2.018870 
4.079433 -2.105515 -2.013683 
2.013690 2.105549 -4.079341 
PRIMCOORD
12 1
Li	      0.05337      0.00152     -0.05082        -0.202845     -0.073075      0.051735
Li	      2.00659      2.06028     -0.00631        -0.062073      0.038952      0.165750
Li	      1.96262      0.00032     -1.95979        -0.102899     -0.076251     -0.048884
Ti	      3.98068      2.06110     -1.97908        -0.054384      0.093565      0.269911
Ti	      4.02370      0.00029     -4.02122         0.090849     -0.324236     -0.472494
Ti	      6.06598      2.06136     -4.06464         0.541330      0.059440     -0.319693
O	      4.02974     -0.00295     -2.01777         0.008096     -0.439899      0.129916
O	      5.99503      2.06532     -2.05026         0.506264     -0.094854      0.262360
O	      4.05171      2.05829     -3.99327        -0.325156      0.347575     -0.567046
O	      4.02302      2.04199      0.01262         0.027340      0.187284      0.486470
O	      1.98860      2.08151     -2.02178        -0.412860     -0.165770      0.009087
O	      4.01909      4.12655     -2.02865        -0.013663      0.447269      0.032888
