# total energy = -90.43906797 eV
 
CRYSTAL
PRIMVEC
2.049464 4.227869 2.049459 
4.141243 -2.137417 -2.044194 
2.044201 2.137451 -4.141149 
PRIMCOORD
12 1
Li	      0.05500      0.00156     -0.05237         0.109703      0.029515     -0.042098
Li	      2.06786      2.12319     -0.00650         0.035321     -0.013884     -0.074477
Li	      2.02254      0.00033     -2.01963         0.023794      0.031149      0.042366
Ti	      4.10222      2.12403     -2.03950        -0.037355     -0.022844     -0.067405
Ti	      4.14655      0.00030     -4.14400        -0.031791      0.134143      0.194363
Ti	      6.25119      2.12430     -4.18875        -0.177793     -0.029498      0.080042
O	      4.15278     -0.00304     -2.07938         0.011974      0.207506     -0.041115
O	      6.17807      2.12838     -2.11286        -0.248792      0.084212     -0.136289
O	      4.17542      2.12113     -4.11519         0.162968     -0.178648      0.272165
O	      4.14585      2.10434      0.01301        -0.018771     -0.116585     -0.200977
O	      2.04932      2.14506     -2.08351         0.162065      0.102889      0.002392
O	      4.14181      4.25254     -2.09059         0.008678     -0.227955     -0.028968
