# total energy = -90.35459827 eV
 
CRYSTAL
PRIMVEC
2.059660 4.248903 2.059656 
4.161846 -2.148051 -2.054364 
2.054371 2.148085 -4.161752 
PRIMCOORD
12 1
Li	      0.05555      0.00158     -0.05290         0.201629      0.067641     -0.065227
Li	      2.08849      2.14437     -0.00657         0.062086     -0.030930     -0.147096
Li	      2.04272      0.00033     -2.03978         0.061670      0.063621      0.073269
Ti	      4.14314      2.14522     -2.05985        -0.039884     -0.049872     -0.166901
Ti	      4.18791      0.00030     -4.18533        -0.051115      0.251204      0.378691
Ti	      6.31355      2.14549     -4.23053        -0.380426     -0.070687      0.173729
O	      4.19421     -0.00307     -2.10012         0.017132      0.386524     -0.056108
O	      6.23970      2.14961     -2.13394        -0.461060      0.145869     -0.249089
O	      4.21707      2.14229     -4.15624         0.304058     -0.318659      0.509276
O	      4.18721      2.12533      0.01314        -0.026228     -0.211616     -0.389383
O	      2.06976      2.16646     -2.10430         0.307480      0.190320     -0.011398
O	      4.18312      4.29496     -2.11145         0.004658     -0.423415     -0.049762
