# total energy = -92.05772344 eV
 
CRYSTAL
PRIMVEC
-4.023670 0.000025 -0.000001 
0.000001 0.000000 4.023829 
-0.000064 8.629717 -0.000011 
PRIMCOORD
16 1
Li	     -2.01244      2.15904      0.00007        -0.000701      0.000547     -0.000145
Li	     -0.00074      4.31665      4.02378        -0.000962      0.002030      0.000109
Li	     -2.01256      6.47306      0.00013        -0.000671      0.002042     -0.000157
Li	     -2.01243      0.00053      2.01196        -0.000931     -0.000383     -0.000046
Mn	     -0.00071      0.00184      4.02381         0.000388     -0.020174      0.000700
Mn	     -2.01249      4.31591      2.01192        -0.000526      0.004670      0.000114
Ni	     -0.00051      2.15851      2.01192        -0.000958      0.001963      0.000049
Ni	     -0.00062      6.47350      2.01197        -0.000807      0.001339      0.000140
O	     -2.01239      2.39433      2.01195         0.000641     -0.010634     -0.000179
O	     -0.00068      4.31612      2.01184         0.000624     -0.003336      0.000518
O	     -2.01248      6.23793      2.01203         0.000811      0.010270     -0.000624
O	     -0.00055      1.92278      0.00001         0.000097      0.017445     -0.000013
O	     -2.01266      4.31607      0.00000         0.001634     -0.002548      0.000117
O	     -0.00059      0.00118      2.01194         0.000447     -0.000590     -0.000157
O	     -0.00068      6.70888      0.00006         0.000484     -0.002597     -0.000291
O	     -2.01243      0.00107      0.00005         0.000429     -0.000043     -0.000135
