# total energy = -90.22158826 eV
 
CRYSTAL
PRIMVEC
2.069856 4.269937 2.069852 
4.182449 -2.158685 -2.064534 
2.064541 2.158719 -4.182355 
PRIMCOORD
12 1
Li	      0.05609      0.00160     -0.05342         0.285146      0.104337     -0.081781
Li	      2.10921      2.16565     -0.00663         0.087887     -0.048598     -0.218854
Li	      2.06299      0.00033     -2.06002         0.101899      0.093749      0.100718
Ti	      4.18426      2.16651     -2.08029        -0.060985     -0.048109     -0.245680
Ti	      4.22948      0.00030     -4.22688        -0.078648      0.315961      0.534362
Ti	      6.37621      2.16679     -4.27252        -0.512858     -0.131937      0.231689
O	      4.23584     -0.00310     -2.12097         0.029102      0.537315     -0.066031
O	      6.30163      2.17094     -2.15512        -0.643799      0.238455     -0.359344
O	      4.25893      2.16355     -4.19749         0.437060     -0.468879      0.741748
O	      4.22876      2.14642      0.01327        -0.035933     -0.298244     -0.533905
O	      2.09030      2.18796     -2.12519         0.377937      0.282150     -0.027763
O	      4.22464      4.33759     -2.13240         0.013191     -0.576198     -0.075160
