# total energy = -90.05018493 eV
 
CRYSTAL
PRIMVEC
2.080053 4.290971 2.080048 
4.203053 -2.169319 -2.074704 
2.074711 2.169353 -4.202957 
PRIMCOORD
12 1
Li	      0.05665      0.00162     -0.05395         0.368037      0.144068     -0.097247
Li	      2.13005      2.18704     -0.00670         0.110390     -0.067016     -0.288818
Li	      2.08336      0.00034     -2.08037         0.135723      0.120166      0.133631
Ti	      4.22558      2.18791     -2.10084        -0.059652     -0.069689     -0.321767
Ti	      4.27125      0.00031     -4.26862        -0.086206      0.379788      0.668216
Ti	      6.43918      2.18818     -4.31472        -0.662561     -0.173387      0.274658
O	      4.27767     -0.00313     -2.14191         0.043281      0.660438     -0.063281
O	      6.36387      2.19239     -2.17640        -0.823794      0.307872     -0.449813
O	      4.30099      2.18492     -4.23895         0.564905     -0.573958      0.943922
O	      4.27053      2.16762      0.01340        -0.046017     -0.374796     -0.653804
O	      2.11094      2.20957     -2.14617         0.449720      0.362842     -0.042907
O	      4.26637      4.38043     -2.15347         0.006172     -0.716328     -0.102791
