# total energy = -89.59177030 eV
 
CRYSTAL
PRIMVEC
2.100445 4.333040 2.100441 
4.244259 -2.190587 -2.095044 
2.095051 2.190622 -4.244163 
PRIMCOORD
12 1
Li	      0.05777      0.00165     -0.05501         0.528809      0.228966     -0.121069
Li	      2.17202      2.23013     -0.00683         0.156077     -0.100733     -0.419231
Li	      2.12441      0.00034     -2.12136         0.203099      0.170922      0.201990
Ti	      4.30884      2.23102     -2.14223        -0.053856     -0.134393     -0.467290
Ti	      4.35541      0.00031     -4.35273        -0.061133      0.481010      0.914821
Ti	      6.56606      2.23130     -4.39973        -0.958300     -0.256146      0.341788
O	      4.36196     -0.00319     -2.18412         0.080823      0.892173     -0.012679
O	      6.48927      2.23559     -2.21929        -1.135117      0.462643     -0.602587
O	      4.38573      2.22798     -4.32247         0.774571     -0.754893      1.287113
O	      4.35468      2.21033      0.01366        -0.064247     -0.543398     -0.877520
O	      2.15254      2.25311     -2.18846         0.563115      0.542622     -0.083727
O	      4.35043      4.46675     -2.19589        -0.033841     -0.988774     -0.161610
