# total energy = -89.31200071 eV
 
CRYSTAL
PRIMVEC
2.110642 4.354074 2.110637 
4.264862 -2.201220 -2.105214 
2.105222 2.201256 -4.264766 
PRIMCOORD
12 1
Li	      0.05833      0.00166     -0.05555         0.603875      0.273250     -0.126367
Li	      2.19316      2.25184     -0.00690         0.181001     -0.119067     -0.484582
Li	      2.14509      0.00035     -2.14200         0.237280      0.194556      0.235257
Ti	      4.35078      2.25273     -2.16308        -0.051858     -0.163190     -0.537502
Ti	      4.39780      0.00032     -4.39510        -0.029914      0.514970      1.026989
Ti	      6.62997      2.25302     -4.44255        -1.104674     -0.311695      0.365821
O	      4.40441     -0.00322     -2.20537         0.102777      0.997764      0.039262
O	      6.55242      2.25735     -2.24089        -1.273797      0.557529     -0.674516
O	      4.42842      2.24966     -4.36454         0.865546     -0.837513      1.428224
O	      4.39706      2.23185      0.01380        -0.068797     -0.632071     -0.968967
O	      2.17349      2.27504     -2.20976         0.599044      0.641873     -0.109959
O	      4.39277      4.51022     -2.21727        -0.060484     -1.116404     -0.193659
