# total energy = -89.00186483 eV
 
CRYSTAL
PRIMVEC
2.120838 4.375108 2.120834 
4.285465 -2.211854 -2.115385 
2.115392 2.211890 -4.285368 
PRIMCOORD
12 1
Li	      0.05890      0.00168     -0.05609         0.680285      0.320381     -0.129702
Li	      2.21439      2.27365     -0.00696         0.204428     -0.137193     -0.547389
Li	      2.16587      0.00035     -2.16275         0.270212      0.215741      0.269674
Ti	      4.39292      2.27455     -2.18403        -0.048293     -0.207433     -0.601616
Ti	      4.44039      0.00032     -4.43766         0.021827      0.556390      1.125707
Ti	      6.69418      2.27484     -4.48558        -1.267612     -0.358705      0.373113
O	      4.44707     -0.00325     -2.22674         0.128527      1.098229      0.105192
O	      6.61588      2.27921     -2.26259        -1.404086      0.653237     -0.742199
O	      4.47131      2.27145     -4.40681         0.949970     -0.901431      1.563138
O	      4.43964      2.25346      0.01393        -0.073511     -0.719833     -1.051197
O	      2.19454      2.29707     -2.23116         0.635226      0.730507     -0.138937
O	      4.43531      4.55390     -2.23874        -0.096974     -1.249890     -0.225785
