# total energy = -86.90618159 eV
 
CRYSTAL
PRIMVEC
3.916785 -0.000186 -0.000034 
0.000035 -0.000610 -3.861787 
-0.000289 5.995912 -1.929935 
PRIMCOORD
12 1
Li	      0.00255      0.03283     -3.66709        -0.493830     -0.577726     -0.544907
Li	      1.86414      1.90027     -3.66858         0.562694     -0.464016     -0.654926
Li	      0.00194      3.76712     -3.66752        -0.638686      0.267576     -0.687795
Ti	      1.86246      5.67861     -3.66774         1.564806      2.659547     -2.365671
Ti	      0.00189      1.90119     -1.83420        -2.158948      0.170250      1.667385
Ti	      1.86326      3.81777     -1.83313         2.055938     -0.399701      2.593982
O	      1.86206      1.90015     -1.83251         2.330926     -2.918151      0.816642
O	      1.86269      5.68980     -1.83350         0.672255      3.909283      2.160381
O	      0.00298      3.78573     -1.83388        -2.231628      3.033178      0.800320
O	      0.00108      1.90097     -3.66704        -0.753643     -0.310621     -1.982831
O	      1.86294      3.80630     -3.66750         0.738474     -1.836548     -2.513919
O	      0.00215      0.01559     -1.83442        -1.648357     -3.533072      0.711340
