# total energy = -87.68109242 eV
 
CRYSTAL
PRIMVEC
3.937400 -0.000187 -0.000034 
0.000035 -0.000613 -3.882113 
-0.000291 6.027470 -1.940092 
PRIMCOORD
12 1
Li	      0.00258      0.03318     -3.70579        -0.429832     -0.502089     -0.455326
Li	      1.88382      1.92032     -3.70730         0.475813     -0.393117     -0.554976
Li	      0.00196      3.80688     -3.70623        -0.539326      0.219730     -0.584443
Ti	      1.88211      5.73853     -3.70645         1.328007      2.308821     -1.986624
Ti	      0.00191      1.92125     -1.85355        -1.806671      0.152313      1.347475
Ti	      1.88292      3.85806     -1.85248         1.689632     -0.337196      2.157736
O	      1.88172      1.92021     -1.85185         1.977483     -2.480145      0.700297
O	      1.88235      5.74985     -1.85285         0.591485      3.360939      1.803940
O	      0.00301      3.82568     -1.85324        -1.858520      2.578829      0.692998
O	      0.00109      1.92103     -3.70574        -0.647006     -0.275680     -1.627219
O	      1.88259      3.84647     -3.70621         0.636965     -1.548147     -2.111622
O	      0.00217      0.01575     -1.85378        -1.418030     -3.084258      0.617766
