# total energy = -88.34398685 eV
 
CRYSTAL
PRIMVEC
3.958015 -0.000188 -0.000035 
0.000035 -0.000617 -3.902438 
-0.000292 6.059027 -1.950250 
PRIMCOORD
12 1
Li	      0.00260      0.03353     -3.74469        -0.369066     -0.426367     -0.380090
Li	      1.90359      1.94049     -3.74622         0.398207     -0.331473     -0.468448
Li	      0.00198      3.84685     -3.74515        -0.449817      0.173919     -0.490361
Ti	      1.90187      5.79878     -3.74536         1.106495      1.985904     -1.644670
Ti	      0.00193      1.94142     -1.87301        -1.491458      0.132133      1.068916
Ti	      1.90269      3.89857     -1.87192         1.365162     -0.278708      1.770267
O	      1.90147      1.94036     -1.87129         1.652859     -2.077085      0.593638
O	      1.90212      5.81021     -1.87230         0.516420      2.852608      1.483631
O	      0.00304      3.86584     -1.87269        -1.521323      2.164525      0.585011
O	      0.00111      1.94120     -3.74465        -0.547945     -0.243374     -1.309376
O	      1.90236      3.88685     -3.74512         0.541870     -1.287666     -1.741421
O	      0.00220      0.01591     -1.87324        -1.201405     -2.664416      0.532904
