# total energy = -88.90347904 eV
 
CRYSTAL
PRIMVEC
3.978629 -0.000189 -0.000035 
0.000035 -0.000620 -3.922763 
-0.000294 6.090585 -1.960407 
PRIMCOORD
12 1
Li	      0.00263      0.03388     -3.78380        -0.315125     -0.359014     -0.315757
Li	      1.92347      1.96075     -3.78535         0.325577     -0.273067     -0.383977
Li	      0.00200      3.88703     -3.78426        -0.369475      0.145170     -0.406604
Ti	      1.92173      5.85934     -3.78447         0.903423      1.685010     -1.338736
Ti	      0.00195      1.96170     -1.89258        -1.211471      0.108226      0.827732
Ti	      1.92256      3.93928     -1.89147         1.080513     -0.229106      1.426483
O	      1.92133      1.96063     -1.89083         1.366390     -1.711916      0.497603
O	      1.92198      5.87090     -1.89185         0.442653      2.380376      1.201142
O	      0.00308      3.90622     -1.89225        -1.226193      1.788929      0.492339
O	      0.00112      1.96148     -3.78375        -0.457214     -0.210633     -1.043629
O	      1.92223      3.92744     -3.78423         0.458403     -1.056152     -1.412250
O	      0.00222      0.01608     -1.89280        -0.997483     -2.267821      0.455654
