# total energy = -91.14954801 eV
 
CRYSTAL
PRIMVEC
0.000030 2.069016 2.068860 
8.233751 0.005963 -0.005807 
0.005784 4.240348 -4.240212 
PRIMCOORD
16 1
Li	      4.23111      4.24378     -0.10737        -0.018238     -0.050798      0.050975
Li	      6.00052      4.13879     -2.07159         0.013396     -0.001558      0.002455
Li	      4.23091      6.25660     -2.11977         0.006355      0.049027     -0.049618
Li	      8.12497      2.17405     -2.17307         0.022927      0.015141     -0.015790
Mn	      8.20020      6.30586     -2.16885         0.017741     -0.011195      0.011381
Mn	      2.18509      2.12175     -0.05388         0.122164      0.016312     -0.016051
Ni	      6.07292      2.14821     -0.08017        -0.036559     -0.025829      0.025634
Ni	      2.16299      4.18412     -2.11622        -0.052162     -0.007111      0.007231
O	      6.22017      4.11357      0.02335         0.003070      0.118554     -0.118279
O	      0.04138      4.35556     -2.28763        -0.131050      0.047436     -0.047486
O	      6.32516      2.16119      1.97590         0.080008     -0.061312      0.061247
O	      0.11892      1.96192      0.10579         0.008144     -0.036484      0.037526
O	      1.95445      4.16309     -0.02604        -0.034886     -0.058411      0.059096
O	      4.07452      4.22775     -2.16000         0.200591     -0.014124      0.014132
O	      1.94758      2.07252      2.06402        -0.108519      0.020738     -0.022808
O	      4.01031      2.08828     -0.02047        -0.092983     -0.000385      0.000355
