# total energy = -89.74232147 eV
 
CRYSTAL
PRIMVEC
4.019859 -0.000191 -0.000035 
0.000036 -0.000626 -3.963413 
-0.000297 6.153699 -1.980722 
PRIMCOORD
12 1
Li	      0.00269      0.03458     -3.86263        -0.207146     -0.236698     -0.205863
Li	      1.96355      2.00160     -3.86421         0.199726     -0.175030     -0.244140
Li	      0.00204      3.96800     -3.86309        -0.229694      0.091733     -0.254475
Ti	      1.96177      5.98141     -3.86331         0.552556      1.143802     -0.827029
Ti	      0.00199      2.00257     -1.93200        -0.741469      0.060707      0.447462
Ti	      1.96262      4.02135     -1.93088         0.622037     -0.139259      0.852983
O	      1.96136      2.00147     -1.93023         0.867063     -1.078790      0.319291
O	      1.96202      5.99320     -1.93127         0.300884      1.560047      0.724311
O	      0.00314      3.98759     -1.93167        -0.737264      1.128493      0.324111
O	      0.00114      2.00234     -3.86258        -0.296091     -0.150255     -0.601113
O	      1.96227      4.00927     -3.86307         0.303265     -0.665994     -0.852789
O	      0.00226      0.01642     -1.93223        -0.633868     -1.538756      0.317250
