# total energy = -90.03555560 eV
 
CRYSTAL
PRIMVEC
4.040473 -0.000192 -0.000035 
0.000036 -0.000630 -3.983739 
-0.000298 6.185257 -1.990880 
PRIMCOORD
12 1
Li	      0.00272      0.03494     -3.90235        -0.160499     -0.184795     -0.152628
Li	      1.98374      2.02218     -3.90394         0.146908     -0.131711     -0.184882
Li	      0.00206      4.00880     -3.90282        -0.169265      0.061886     -0.191048
Ti	      1.98194      6.04291     -3.90304         0.406014      0.893416     -0.614941
Ti	      0.00201      2.02316     -1.95187        -0.547895      0.041582      0.303912
Ti	      1.98280      4.06270     -1.95073         0.443311     -0.097346      0.618660
O	      1.98153      2.02206     -1.95007         0.652745     -0.808042      0.242628
O	      1.98219      6.05483     -1.95113         0.227675      1.195727      0.530500
O	      0.00317      4.02860     -1.95154        -0.537426      0.844528      0.248112
O	      0.00115      2.02293     -3.90230        -0.223663     -0.116627     -0.422662
O	      1.98245      4.05049     -3.90279         0.234932     -0.500313     -0.628116
O	      0.00229      0.01658     -1.95210        -0.472835     -1.198304      0.250464
