# total energy = -90.25337889 eV
 
CRYSTAL
PRIMVEC
4.061088 -0.000193 -0.000036 
0.000036 -0.000633 -4.004064 
-0.000300 6.216814 -2.001037 
PRIMCOORD
12 1
Li	      0.00274      0.03530     -3.94227        -0.113090     -0.131090     -0.108475
Li	      2.00403      2.04287     -3.94388         0.099077     -0.095045     -0.128774
Li	      0.00208      4.04981     -3.94274        -0.117417      0.043225     -0.139283
Ti	      2.00222      6.10473     -3.94297         0.277850      0.650888     -0.427570
Ti	      0.00203      2.04386     -1.97184        -0.379222      0.026105      0.190200
Ti	      2.00308      4.10426     -1.97069         0.294184     -0.062703      0.418925
O	      2.00180      2.04274     -1.97002         0.459965     -0.570628      0.171200
O	      2.00247      6.11677     -1.97108         0.167139      0.866706      0.363529
O	      0.00320      4.06981     -1.97150        -0.366419      0.589786      0.184873
O	      0.00117      2.04363     -3.94222        -0.158234     -0.089446     -0.277915
O	      2.00273      4.09193     -3.94272         0.167278     -0.357205     -0.432547
O	      0.00231      0.01675     -1.97207        -0.331111     -0.870592      0.185836
