# total energy = -90.40164764 eV
 
CRYSTAL
PRIMVEC
4.081703 -0.000194 -0.000036 
0.000036 -0.000636 -4.024389 
-0.000301 6.248372 -2.011195 
PRIMCOORD
12 1
Li	      0.00277      0.03566     -3.98239        -0.071998     -0.086159     -0.070905
Li	      2.02443      2.06366     -3.98402         0.058474     -0.060572     -0.079433
Li	      0.00210      4.09103     -3.98287        -0.071735      0.025656     -0.085863
Ti	      2.02260      6.16687     -3.98310         0.168047      0.417417     -0.262737
Ti	      0.00205      2.06466     -1.99191        -0.233960      0.014413      0.104868
Ti	      2.02347      4.14603     -1.99075         0.171444     -0.031821      0.251951
O	      2.02217      2.06353     -1.99007         0.291854     -0.357035      0.104590
O	      2.02286      6.17903     -1.99115         0.107407      0.560751      0.223083
O	      0.00324      4.11124     -1.99156        -0.223042      0.360856      0.120940
O	      0.00118      2.06443     -3.98235        -0.098944     -0.061972     -0.165525
O	      2.02312      4.13358     -3.98284         0.106847     -0.224917     -0.262023
O	      0.00234      0.01693     -1.99215        -0.204396     -0.556616      0.121054
