# total energy = -90.48404545 eV
 
CRYSTAL
PRIMVEC
4.143547 -0.000197 -0.000036 
0.000037 -0.000646 -4.085365 
-0.000306 6.343044 -2.041668 
PRIMCOORD
12 1
Li	      0.00282      0.03739     -0.01862         0.030629      0.042313      0.015420
Li	      2.08624      2.12667     -4.10566        -0.036575      0.025469      0.041432
Li	      0.00217      4.21594     -4.10448         0.032731     -0.004787      0.036623
Ti	      2.08466      0.01212     -2.06305        -0.053579     -0.225274      0.100940
Ti	      0.00211      2.12770     -2.05272         0.089221     -0.011473     -0.012635
Ti	      2.08525      4.27262     -2.05153        -0.058387      0.040014     -0.086508
O	      2.08392      2.12654     -2.05084        -0.111695      0.147664     -0.061278
O	      2.08492      0.02464     -0.01027        -0.053152     -0.219080     -0.076440
O	      0.00334      4.23676     -2.05237         0.071289     -0.196818     -0.041702
O	      0.00121      2.12746     -4.10393         0.059126      0.022915      0.040340
O	      2.08489      4.25979     -4.10445        -0.050152      0.076482      0.094997
O	      0.00240      0.01744     -2.05297         0.080545      0.302575     -0.051187
