# total energy = -90.40648081 eV
 
CRYSTAL
PRIMVEC
4.164161 -0.000198 -0.000036 
0.000037 -0.000649 -4.105690 
-0.000307 6.374601 -2.051825 
PRIMCOORD
12 1
Li	      0.00285      0.03776     -0.03924         0.057650      0.077518      0.040228
Li	      2.10705      2.14788     -4.14662        -0.060084      0.048783      0.068900
Li	      0.00219      4.25799     -4.14542         0.057707     -0.015519      0.068336
Ti	      2.10545      0.04395     -2.09383        -0.091084     -0.413320      0.182142
Ti	      0.00214      2.14892     -2.07320         0.165646     -0.011508     -0.011735
Ti	      2.10605      4.31524     -2.07199        -0.093182      0.052945     -0.150992
O	      2.10470      2.14775     -2.07129        -0.215653      0.282471     -0.109534
O	      2.10572      0.05661     -0.02058        -0.099711     -0.435718     -0.135940
O	      0.00337      4.27902     -2.07284         0.129918     -0.346125     -0.091486
O	      0.00122      2.14868     -4.14487         0.102185      0.052753      0.066063
O	      2.10568      4.30227     -4.14539        -0.095463      0.150782      0.168749
O	      0.00243      0.01762     -2.07345         0.142070      0.556939     -0.094730
