# total energy = -90.28524958 eV
 
CRYSTAL
PRIMVEC
4.184776 -0.000199 -0.000037 
0.000037 -0.000652 -4.126015 
-0.000309 6.406159 -2.061983 
PRIMCOORD
12 1
Li	      0.00288      0.03813     -0.06005         0.081518      0.110678      0.057364
Li	      2.12796      2.16920     -4.18778        -0.078465      0.070286      0.094447
Li	      0.00221      4.30026     -4.18657         0.079895     -0.020215      0.093613
Ti	      2.12635      0.07610     -2.12483        -0.109839     -0.580386      0.247299
Ti	      0.00216      2.17025     -2.09378         0.226512     -0.005202      0.006434
Ti	      2.12696      4.35807     -2.09256        -0.110776      0.048441     -0.193133
O	      2.12559      2.16907     -2.09185        -0.309582      0.390164     -0.151716
O	      2.12662      0.08888     -0.03100        -0.141184     -0.631384     -0.177366
O	      0.00340      4.32150     -2.09342         0.169954     -0.466158     -0.133270
O	      0.00124      2.17000     -4.18601         0.143878      0.076708      0.079543
O	      2.12659      4.34498     -4.18654        -0.142097      0.218038      0.223702
O	      0.00245      0.01779     -2.09403         0.190187      0.789030     -0.146917
