# total energy = -90.12495592 eV
 
CRYSTAL
PRIMVEC
4.205391 -0.000200 -0.000037 
0.000037 -0.000655 -4.146340 
-0.000310 6.437716 -2.072140 
PRIMCOORD
12 1
Li	      0.00290      0.03851     -0.08107         0.102745      0.147294      0.077728
Li	      2.14898      2.19062     -4.22913        -0.091993      0.090398      0.118043
Li	      0.00223      4.34273     -4.22792         0.098862     -0.022932      0.115856
Ti	      2.14735      0.10857     -2.15602        -0.112702     -0.741283      0.293888
Ti	      0.00218      2.19168     -2.11445         0.276222      0.003921      0.039044
Ti	      2.14796      4.40111     -2.11323        -0.112395      0.048024     -0.218182
O	      2.14659      2.19049     -2.11251        -0.390716      0.485722     -0.192069
O	      2.14762      0.12147     -0.04151        -0.183377     -0.816147     -0.201317
O	      0.00343      4.36418     -2.11409         0.192784     -0.574234     -0.175739
O	      0.00125      2.19143     -4.22735         0.183173      0.103084      0.070920
O	      2.14759      4.38790     -4.22789        -0.185464      0.265943      0.262014
O	      0.00248      0.01797     -2.11471         0.222860      1.010210     -0.190187
