# total energy = -92.93451512 eV
 
CRYSTAL
PRIMVEC
2.048295 4.101053 2.048298 
2.063515 -4.116506 2.063599 
4.151587 0.000049 -4.151674 
PRIMCOORD
16 1
Li	      6.23040     -0.01576      1.98890        -0.006797     -0.000060      0.008050
Li	      6.14318     -2.06578      0.02858         0.004358     -0.000271     -0.005566
Li	      6.15456     -0.00802     -2.04617         0.007461      0.000352     -0.007405
Li	      4.19594     -0.00795     -0.08906         0.019065     -0.000400     -0.018375
Mn	      8.23258     -0.01574     -0.01216        -0.036018      0.000011      0.034932
Mn	      4.15928     -2.06623      2.01265         0.014351     -0.001595     -0.014289
Ni	      4.14328      2.04245      2.01332        -0.017807      0.000070      0.016221
Ni	      6.15539      2.04251      0.00106        -0.012834     -0.002321      0.014004
O	      6.33324      0.07716     -0.04059         0.072728     -0.141618     -0.000148
O	      4.02418      1.99198      0.00495        -0.102944      0.004096     -0.129053
O	      4.14905     -0.09335     -2.22480        -0.000830      0.142745     -0.070877
O	      4.10389     -0.11387      2.16545         0.000404     -0.058635      0.033383
O	      4.10320     -2.00802      0.08426         0.129133     -0.003636      0.102507
O	      2.08065      2.16148      1.97250        -0.110159      0.036227     -0.072041
O	      1.94318      0.09769      0.00458        -0.034196      0.060430     -0.001089
O	      2.13588     -2.17766      2.02792         0.074087     -0.035393      0.109746
