# total energy = -89.92893094 eV
 
CRYSTAL
PRIMVEC
4.226005 -0.000201 -0.000037 
0.000038 -0.000658 -4.166665 
-0.000312 6.469274 -2.082298 
PRIMCOORD
12 1
Li	      0.00293      0.03888     -0.10229         0.121270      0.181966      0.091979
Li	      2.17010      2.21216     -4.27070        -0.108311      0.111238      0.136880
Li	      0.00226      4.38541     -4.26947         0.113835     -0.030545      0.135665
Ti	      2.16845      0.14135     -2.18741        -0.100454     -0.899524      0.326015
Ti	      0.00220      2.21322     -2.13524         0.315782      0.015330      0.085542
Ti	      2.16907      4.44437     -2.13399        -0.100887      0.046882     -0.223475
O	      2.16768      2.21202     -2.13327        -0.457513      0.574063     -0.232071
O	      2.16872      0.15438     -0.05213        -0.213697     -0.984601     -0.211941
O	      0.00347      4.40707     -2.13487         0.201871     -0.667608     -0.211222
O	      0.00126      2.21297     -4.26890         0.218717      0.131348      0.054408
O	      2.16870      4.43102     -4.26944        -0.230732      0.306172      0.278474
O	      0.00250      0.01815     -2.13550         0.240118      1.215279     -0.230254
