# total energy = -89.70098122 eV
 
CRYSTAL
PRIMVEC
4.246620 -0.000202 -0.000037 
0.000038 -0.000662 -4.186991 
-0.000314 6.500831 -2.092455 
PRIMCOORD
12 1
Li	      0.00296      0.03926     -0.12372         0.132800      0.215398      0.102706
Li	      2.19132      2.23379     -4.31247        -0.116504      0.131382      0.152744
Li	      0.00228      4.42830     -4.31122         0.124686     -0.030904      0.149528
Ti	      2.18965      0.17444     -2.21902        -0.073574     -1.047932      0.339709
Ti	      0.00222      2.23487     -2.15612         0.344299      0.030347      0.143854
Ti	      2.19029      4.48783     -2.15486        -0.077026      0.045588     -0.212398
O	      2.18888      2.23365     -2.15413        -0.517630      0.644982     -0.267435
O	      2.18993      0.18760     -0.06284        -0.244222     -1.137890     -0.205107
O	      0.00350      4.45017     -2.15575         0.197289     -0.756484     -0.243783
O	      0.00127      2.23462     -4.31065         0.250843      0.154451      0.024229
O	      2.18990      4.47435     -4.31120        -0.269084      0.338166      0.281553
O	      0.00253      0.01832     -2.15638         0.248122      1.412895     -0.265600
