# total energy = -89.44423727 eV
 
CRYSTAL
PRIMVEC
4.267235 -0.000203 -0.000037 
0.000038 -0.000665 -4.207316 
-0.000315 6.532389 -2.102613 
PRIMCOORD
12 1
Li	      0.00299      0.03964     -0.14534         0.145958      0.247077      0.109243
Li	      2.21265      2.25553     -4.35444        -0.124613      0.149801      0.168206
Li	      0.00230      4.47140     -4.35318         0.134521     -0.030341      0.163530
Ti	      2.21096      0.20785     -2.25082        -0.033447     -1.189671      0.341021
Ti	      0.00224      2.25662     -2.17711         0.365899      0.045410      0.213047
Ti	      2.21160      4.53152     -2.17584        -0.042175      0.042227     -0.184946
O	      2.21018      2.25539     -2.17510        -0.569225      0.709070     -0.301417
O	      2.21124      0.22114     -0.07366        -0.270699     -1.275418     -0.188749
O	      0.00354      4.49348     -2.17673         0.180119     -0.833330     -0.275820
O	      0.00129      2.25637     -4.35260         0.281022      0.176331     -0.017183
O	      2.21122      4.51790     -4.35315        -0.309321      0.362036      0.269164
O	      0.00255      0.01850     -2.17737         0.241960      1.596809     -0.296097
