# total energy = -88.53354102 eV
 
CRYSTAL
PRIMVEC
4.329079 -0.000206 -0.000038 
0.000038 -0.000674 -4.268291 
-0.000320 6.627061 -2.133086 
PRIMCOORD
12 1
Li	      0.00308      0.04078     -0.21145         0.166873      0.337202      0.116780
Li	      2.27725      2.32138     -4.48157        -0.136800      0.201706      0.191377
Li	      0.00237      4.60194     -4.48027         0.149067     -0.029435      0.185263
Ti	      2.27551      0.30996     -2.34745         0.154543     -1.545491      0.270336
Ti	      0.00231      2.32250     -2.24067         0.388674      0.105457      0.468131
Ti	      2.27617      4.66381     -2.23936         0.106926     -0.007641     -0.022271
O	      2.27471      2.32124     -2.23860        -0.683419      0.871507     -0.388247
O	      2.27580      0.32364     -0.10673        -0.336259     -1.628371     -0.055868
O	      0.00364      4.62467     -2.24028         0.079262     -1.022813     -0.355452
O	      0.00132      2.32224     -4.47968         0.361508      0.251123     -0.206531
O	      2.27577      4.64980     -4.48024        -0.418299      0.392925      0.164977
O	      0.00263      0.01904     -2.24094         0.167924      2.073831     -0.368493
