# total energy = -86.87288739 eV
 
CRYSTAL
PRIMVEC
3.892199 -0.000584 -0.001038 
0.000443 3.933265 -3.931664 
-1.947146 3.977191 2.009929 
PRIMCOORD
12 1
Li	      0.00240      0.06441     -0.05185        -0.179785     -0.724405      0.087249
Li	      1.85053      1.85045     -0.01759         0.629692     -0.554857      0.363965
Li	      0.00211      1.84941     -1.77252        -0.248460     -0.635741     -0.570897
Ti	      0.00128      3.77017      0.03030        -1.892842      0.164110      1.981122
Ti	      1.85141      3.74125     -1.87305         2.870102     -1.454158     -1.892895
Ti	      0.00150      5.62759     -1.85423        -1.715476      1.005860     -1.537311
O	      0.00138      1.96220      0.07612        -0.673029     -4.108464     -0.231452
O	      1.84981      3.78705      0.01600         2.330051      0.005373      3.013483
O	      0.00249      3.71301     -1.88982        -2.358753     -2.649229     -2.737853
O	      1.85020      5.61262     -1.83549         2.101654      2.696470     -0.632268
O	      0.00128      5.63215      0.01557        -0.528881      2.556730      3.003691
O	      0.00143      7.50037     -1.82844        -0.334273      3.698311     -0.846835
