# total energy = -87.66622791 eV
 
CRYSTAL
PRIMVEC
3.912685 -0.000587 -0.001044 
0.000446 3.953966 -3.952357 
-1.957395 3.998124 2.020508 
PRIMCOORD
12 1
Li	      0.00242      0.06509     -0.05240        -0.160322     -0.622603      0.083458
Li	      1.87005      1.86998     -0.01777         0.534077     -0.480849      0.320388
Li	      0.00213      1.86892     -1.79122        -0.214925     -0.548752     -0.485989
Ti	      0.00130      3.80996      0.03062        -1.547719      0.135099      1.629524
Ti	      1.87095      3.78074     -1.89282         2.411750     -1.172614     -1.552298
Ti	      0.00152      5.68698     -1.87380        -1.398165      0.849760     -1.250679
O	      0.00140      1.98291      0.07693        -0.574818     -3.530698     -0.245121
O	      1.86933      3.82702      0.01617         1.944320     -0.013126      2.580232
O	      0.00252      3.75220     -1.90977        -1.975847     -2.265236     -2.347963
O	      1.86972      5.67185     -1.85486         1.753357      2.304294     -0.561228
O	      0.00129      5.69159      0.01574        -0.468213      2.137175      2.571110
O	      0.00145      7.57953     -1.84774        -0.303495      3.207550     -0.741433
