# total energy = -88.34387041 eV
 
CRYSTAL
PRIMVEC
3.933170 -0.000590 -0.001049 
0.000448 3.974667 -3.973050 
-1.967643 4.019056 2.031086 
PRIMCOORD
12 1
Li	      0.00245      0.06577     -0.05295        -0.143702     -0.529143      0.075627
Li	      1.88969      1.88961     -0.01796         0.449502     -0.413506      0.280494
Li	      0.00215      1.88855     -1.81003        -0.186741     -0.469136     -0.403235
Ti	      0.00131      3.84995      0.03094        -1.245431      0.105493      1.318474
Ti	      1.89060      3.82043     -1.91269         1.999139     -0.921014     -1.248628
Ti	      0.00153      5.74668     -1.89347        -1.122093      0.705421     -1.004849
O	      0.00141      2.00373      0.07774        -0.484469     -2.998845     -0.248196
O	      1.88896      3.86720      0.01634         1.597612     -0.028638      2.182465
O	      0.00254      3.79159     -1.92982        -1.629179     -1.916005     -1.988990
O	      1.88935      5.73140     -1.87434         1.441968      1.948879     -0.491098
O	      0.00130      5.75135      0.01590        -0.408155      1.762578      2.166503
O	      0.00146      7.65910     -1.86714        -0.268450      2.753917     -0.638566
