# total energy = -89.38665143 eV
 
CRYSTAL
PRIMVEC
3.974140 -0.000596 -0.001060 
0.000453 4.016070 -4.014436 
-1.988139 4.060922 2.052243 
PRIMCOORD
12 1
Li	      0.00250      0.06715     -0.05406        -0.107044     -0.367050      0.059347
Li	      1.92926      1.92919     -0.01833         0.297960     -0.296138      0.202894
Li	      0.00220      1.92810     -1.84793        -0.131884     -0.318810     -0.267645
Ti	      0.00134      3.93058      0.03158        -0.753684      0.048761      0.806356
Ti	      1.93019      3.90044     -1.95274         1.299194     -0.503186     -0.741255
Ti	      0.00157      5.86703     -1.93313        -0.676661      0.448185     -0.621404
O	      0.00144      2.04569      0.07937        -0.329334     -2.046031     -0.219232
O	      1.92852      3.94818      0.01668         1.021783     -0.046001      1.486029
O	      0.00260      3.87099     -1.97023        -1.048151     -1.299314     -1.349438
O	      1.92892      5.85143     -1.91359         0.924433      1.325585     -0.358723
O	      0.00134      5.87179      0.01623        -0.292675      1.122799      1.451307
O	      0.00150      7.81950     -1.90624        -0.203939      1.931200     -0.448235
