# total energy = -92.25223931 eV
 
CRYSTAL
PRIMVEC
-0.000003 2.049078 2.049075 
8.214216 -0.000007 0.000007 
0.000012 4.271663 -4.271725 
PRIMCOORD
16 1
Li	      2.05351      2.20557     -0.15721         0.000369      0.006930     -0.005725
Li	      4.10697      4.18251     -0.08682        -0.000141     -0.000629      0.001429
Li	      6.16061      4.11202     -2.06334         0.000533     -0.007649      0.007281
Li	      0.00001      4.18245     -0.08632        -0.000163      0.000651      0.000161
Mn	      8.21414      6.31961     -2.22161        -0.000584     -0.005230      0.004924
Mn	      4.10697      6.31933     -2.22135         0.000759      0.004062     -0.004223
Ni	      6.16059      2.14955     -0.10086        -0.001624      0.019625     -0.018863
Ni	      2.05345      4.16840     -2.11970        -0.001614     -0.020833      0.019243
O	      6.16058      4.12110     -0.02336         0.000094      0.108227     -0.108659
O	      8.18166      4.36749     -2.31853        -0.081767      0.016258     -0.016504
O	      6.16057      2.13295      1.96507         0.000028     -0.087736      0.087437
O	      0.03232      1.95075      0.09827         0.082587     -0.011659      0.011333
O	      2.05345      4.24578     -0.14813        -0.000071     -0.107784      0.108538
O	      4.13939      4.36754     -2.31859         0.083101      0.012564     -0.012627
O	      2.05343      6.23429     -2.13634         0.000082      0.088361     -0.088590
O	      4.07456      1.95078      0.09824        -0.081588     -0.015157      0.014843
