# total energy = -90.06389229 eV
 
CRYSTAL
PRIMVEC
4.015111 -0.000602 -0.001071 
0.000457 4.057473 -4.055822 
-2.008635 4.102787 2.073401 
PRIMCOORD
12 1
Li	      0.00255      0.06854     -0.05518        -0.072848     -0.224454      0.043994
Li	      1.96925      1.96917     -0.01871         0.174282     -0.193690      0.133225
Li	      0.00224      1.96806     -1.88623        -0.082314     -0.196834     -0.155103
Ti	      0.00137      4.01204      0.03224        -0.392865     -0.000829      0.411085
Ti	      1.97019      3.98127     -1.99321         0.744602     -0.189645     -0.352237
Ti	      0.00160      5.98862     -1.97319        -0.351475      0.226729     -0.361608
O	      0.00147      2.08809      0.08101        -0.197428     -1.221552     -0.150217
O	      1.96848      4.03000      0.01703         0.572809     -0.049454      0.907479
O	      0.00265      3.95122     -2.01106        -0.591618     -0.782776     -0.818730
O	      1.96889      5.97269     -1.95325         0.522686      0.808101     -0.230368
O	      0.00136      5.99348      0.01657        -0.188492      0.623644      0.846745
O	      0.00153      7.98156     -1.94574        -0.137339      1.200760     -0.274264
