# total energy = -90.42992676 eV
 
CRYSTAL
PRIMVEC
4.056081 -0.000608 -0.001082 
0.000462 4.098876 -4.097208 
-2.029132 4.144652 2.094558 
PRIMCOORD
12 1
Li	      0.00261      0.06994     -0.05631        -0.037405     -0.101830      0.024105
Li	      2.00964      2.00956     -0.01910         0.076476     -0.097423      0.069686
Li	      0.00229      2.00842     -1.92492        -0.037564     -0.090551     -0.058271
Ti	      0.00139      4.09434      0.03290        -0.145639     -0.025430      0.116907
Ti	      2.01061      4.06294     -2.03410         0.311368      0.009456     -0.076975
Ti	      0.00163      6.11146     -2.01366        -0.128080      0.049661     -0.181125
O	      0.00150      2.13092      0.08267        -0.091142     -0.517149     -0.045061
O	      2.00886      4.11267      0.01738         0.239567     -0.043034      0.424824
O	      0.00271      4.03227     -2.05232        -0.247598     -0.365949     -0.382104
O	      2.00928      6.09521     -1.99331         0.221551      0.381029     -0.119752
O	      0.00139      6.11642      0.01691        -0.090658      0.251384      0.355267
O	      0.00156      8.14528     -1.98566        -0.070875      0.549834     -0.127502
