# total energy = -90.51164631 eV
 
CRYSTAL
PRIMVEC
4.076567 -0.000612 -0.001088 
0.000464 4.119577 -4.117901 
-2.039380 4.165585 2.105136 
PRIMCOORD
12 1
Li	      0.00263      0.07065     -0.05688        -0.019965     -0.044210      0.016608
Li	      2.02999      2.02991     -0.01929         0.034994     -0.051547      0.041973
Li	      0.00231      2.02876     -1.94441        -0.018824     -0.040122     -0.019257
Ti	      0.00141      4.13580      0.03324        -0.060149     -0.028073      0.014690
Ti	      2.03096      4.10408     -2.05470         0.135051      0.063083      0.013341
Ti	      0.00165      6.17335     -2.03405        -0.050387     -0.015754     -0.113670
O	      0.00152      2.15250      0.08351        -0.042270     -0.210700      0.014635
O	      2.02920      4.15432      0.01755         0.111922     -0.033001      0.212839
O	      0.00273      4.07310     -2.07310        -0.110196     -0.186584     -0.193532
O	      2.02963      6.15693     -2.01350         0.101922      0.188732     -0.068652
O	      0.00141      6.17836      0.01708        -0.044646      0.108651      0.147975
O	      0.00157      8.22776     -2.00577        -0.037449      0.249526     -0.066949
