# total energy = -90.41922877 eV
 
CRYSTAL
PRIMVEC
4.138023 -0.000621 -0.001104 
0.000471 4.181681 -4.179979 
-2.070124 4.228382 2.136872 
PRIMCOORD
12 1
Li	      0.00271      0.07281     -0.05861         0.035855      0.121135     -0.015827
Li	      2.09166      2.09157     -0.01988        -0.062050      0.093632     -0.045222
Li	      0.00238      2.09039     -2.00348         0.037777      0.087410      0.083078
Ti	      0.00145      4.26144      0.03425         0.064469     -0.026975     -0.129424
Ti	      2.09266      4.22876     -2.11712        -0.246876      0.085102      0.117801
Ti	      0.00170      6.36089     -2.09584         0.069974     -0.149784     -0.008070
O	      0.00156      2.21789      0.08604         0.074005      0.568137      0.207241
O	      2.09085      4.28052      0.01808        -0.138550     -0.001428     -0.319847
O	      0.00281      4.19683     -2.13607         0.148780      0.235108      0.274652
O	      2.09129      6.34396     -2.07466        -0.141590     -0.270250      0.076546
O	      2.07157      2.13766     -2.11927         0.086832     -0.183316     -0.353856
O	      2.07127      0.06764     -0.02359         0.071375     -0.558772      0.112928
