# total energy = -90.29165815 eV
 
CRYSTAL
PRIMVEC
4.158508 -0.000624 -0.001110 
0.000474 4.202383 -4.200672 
-2.080372 4.249315 2.147451 
PRIMCOORD
12 1
Li	      0.00274      0.07353     -0.05919         0.053516      0.174799     -0.025453
Li	      2.11242      2.11233     -0.02007        -0.085606      0.146127     -0.068871
Li	      0.00241      2.11114     -2.02337         0.054275      0.125387      0.112819
Ti	      0.00147      4.30374      0.03459         0.068599     -0.028344     -0.140306
Ti	      2.11343      4.27073     -2.13813        -0.333460      0.064924      0.126687
Ti	      0.00172      6.42402     -2.11665         0.079300     -0.187142     -0.004619
O	      0.00158      2.23990      0.08690         0.105363      0.787200      0.279842
O	      2.11160      4.32300      0.01826        -0.183519      0.012700     -0.465099
O	      0.00284      4.23849     -2.15728         0.194324      0.347752      0.398180
O	      2.11204      6.40694     -2.09526        -0.189062     -0.391586      0.119759
O	      2.08183      2.17991     -2.12967         0.127707     -0.242268     -0.495504
O	      2.08154      0.11015     -0.03398         0.108564     -0.809547      0.162567
