# total energy = -90.12212248 eV
 
CRYSTAL
PRIMVEC
4.178993 -0.000627 -0.001115 
0.000476 4.223084 -4.221365 
-2.090620 4.270247 2.158029 
PRIMCOORD
12 1
Li	      0.00276      0.07425     -0.05977         0.070380      0.232048     -0.034366
Li	      2.13328      2.13320     -0.02027        -0.107112      0.201370     -0.093994
Li	      0.00243      2.13199     -2.04335         0.071353      0.160170      0.139434
Ti	      0.00148      4.34624      0.03493         0.057461     -0.030200     -0.141583
Ti	      2.13430      4.31291     -2.15924        -0.403036      0.037711      0.130114
Ti	      0.00174      6.48747     -2.13755         0.074942     -0.223007     -0.016203
O	      0.00159      2.26202      0.08776         0.134842      0.991106      0.353994
O	      2.13246      4.36570      0.01845        -0.213402      0.028150     -0.598764
O	      0.00287      4.28035     -2.17858         0.225311      0.450724      0.513216
O	      2.13290      6.47021     -2.11595        -0.225673     -0.507636      0.158321
O	      2.09210      2.22248     -2.14007         0.167180     -0.286816     -0.620991
O	      2.09180      0.15308     -0.04449         0.147753     -1.053620      0.210821
