# total energy = -89.91403083 eV
 
CRYSTAL
PRIMVEC
4.199478 -0.000630 -0.001120 
0.000478 4.243785 -4.242058 
-2.100869 4.291180 2.168608 
PRIMCOORD
12 1
Li	      0.00279      0.07498     -0.06036         0.089675      0.287368     -0.045018
Li	      2.15425      2.15417     -0.02047        -0.121348      0.263130     -0.115323
Li	      0.00245      2.15294     -2.06343         0.088456      0.195039      0.162191
Ti	      0.00150      4.38895      0.03527         0.030816     -0.036195     -0.129878
Ti	      2.15528      4.35529     -2.18047        -0.455560     -0.002016      0.123065
Ti	      0.00175      6.55123     -2.15856         0.059220     -0.254198     -0.043078
O	      0.00161      2.28426      0.08862         0.161985      1.182520      0.433654
O	      2.15341      4.40860      0.01863        -0.226964      0.039923     -0.716966
O	      0.00290      4.32242     -2.19999         0.238176      0.545004      0.613602
O	      2.15386      6.53380     -2.13674        -0.252768     -0.616959      0.197216
O	      2.10236      2.26536     -2.15048         0.207353     -0.312160     -0.734820
O	      2.10206      0.19642     -0.05509         0.180958     -1.291455      0.255354
