# total energy = -89.67092851 eV
 
CRYSTAL
PRIMVEC
4.219964 -0.000633 -0.001126 
0.000481 4.264487 -4.262751 
-2.111117 4.312113 2.179186 
PRIMCOORD
12 1
Li	      0.00282      0.07572     -0.06095         0.108509      0.348464     -0.052727
Li	      2.17532      2.17523     -0.02067        -0.136824      0.326303     -0.135132
Li	      0.00248      2.17400     -2.08361         0.103777      0.224567      0.184749
Ti	      0.00151      4.43188      0.03561        -0.008727     -0.043520     -0.103754
Ti	      2.17636      4.39789     -2.20179        -0.490128     -0.053893      0.108505
Ti	      0.00177      6.61529     -2.17967         0.033238     -0.277799     -0.078940
O	      0.00163      2.30659      0.08949         0.188379      1.354744      0.515575
O	      2.17447      4.45172      0.01881        -0.230448      0.059515     -0.821141
O	      0.00293      4.36469     -2.22151         0.234889      0.631035      0.701162
O	      2.17493      6.59770     -2.15764        -0.264829     -0.718255      0.233005
O	      2.11262      2.30855     -2.16088         0.245106     -0.320079     -0.839309
O	      2.11232      0.24018     -0.06579         0.217057     -1.531083      0.288006
