# total energy = -89.39562635 eV
 
CRYSTAL
PRIMVEC
4.240449 -0.000636 -0.001131 
0.000483 4.285188 -4.283444 
-2.121365 4.333045 2.189765 
PRIMCOORD
12 1
Li	      0.00285      0.07645     -0.06154         0.127243      0.409526     -0.065494
Li	      2.19649      2.19640     -0.02088        -0.145279      0.401191     -0.148221
Li	      0.00250      2.19515     -2.10389         0.120735      0.256232      0.204962
Ti	      0.00152      4.47501      0.03596        -0.061124     -0.053947     -0.065381
Ti	      2.19754      4.44069     -2.22322        -0.508095     -0.118505      0.086227
Ti	      0.00178      6.67968     -2.20089        -0.001368     -0.295378     -0.125024
O	      0.00164      2.32904      0.09036         0.209514      1.516498      0.597511
O	      2.19563      4.49505      0.01899        -0.220279      0.077201     -0.917659
O	      0.00296      4.40717     -2.24313         0.218722      0.705895      0.777992
O	      2.19610      6.66191     -2.17864        -0.269860     -0.813908      0.270656
O	      2.12288      2.35205     -2.17128         0.279369     -0.315068     -0.934901
O	      2.12258      0.28435     -0.07660         0.250421     -1.769738      0.319332
