# total energy = -115.39419368 eV
 
CRYSTAL
PRIMVEC
1.977225 3.984701 1.988508 
3.938367 -1.992365 -1.972597 
-0.008049 3.977242 -3.954055 
PRIMCOORD
16 1
Li	      0.05683      0.07119     -0.10027        -0.684269     -0.388575      0.235314
Li	      1.81856      1.91752     -0.05908        -0.295629     -0.087442      1.008278
Li	      1.85165     -0.00150     -1.79856        -0.121800     -1.014801      0.144596
Li	      0.05717      1.84733     -1.74616        -0.889487     -0.044367     -0.181252
Ti	      3.73076      1.88794     -1.81344         2.426614     -0.232994      0.082286
Ti	      1.86216      3.83298     -1.85989        -2.200384      0.390846      0.263887
Ti	      3.66020      5.57628     -1.92020         2.182812      3.259783     -2.014208
Ti	      3.81115      3.76485     -3.77022         2.078954      2.715908     -2.580541
O	      1.89214      1.91165     -1.93748        -3.128313     -2.961438      0.567139
O	      3.76152      3.73410     -1.84598         3.351436     -0.043066      2.317262
O	      1.92834      3.71209     -3.68863        -2.381655      0.564907     -3.883033
O	      3.71935      1.88163      0.00505         0.735251     -0.158341      3.304102
O	      3.75051      0.05227     -1.81263         0.624371     -4.065600     -0.740150
O	      1.80672      3.80195     -0.06891         0.545023      0.702497      4.053092
O	      3.69479      1.87464     -3.73023         0.549359     -2.594945     -2.810391
O	      1.86687      5.71480     -1.89334        -2.792284      3.957629      0.233620
