# total energy = -116.52900195 eV
 
CRYSTAL
PRIMVEC
1.987632 4.005673 1.998974 
3.959095 -2.002851 -1.982979 
-0.008091 3.998175 -3.974866 
PRIMCOORD
16 1
Li	      0.05743      0.07195     -0.10133        -0.602912     -0.346955      0.205393
Li	      1.83775      1.93776     -0.05970        -0.251060     -0.060534      0.871149
Li	      1.87119     -0.00151     -1.81754        -0.095300     -0.883026      0.124794
Li	      0.05777      1.86683     -1.76459        -0.763757     -0.041341     -0.159180
Ti	      3.77014      1.90787     -1.83258         2.021657     -0.181535      0.112317
Ti	      1.88181      3.87344     -1.87951        -1.802683      0.355908      0.232447
Ti	      3.69883      5.63513     -1.94047         1.789378      2.724798     -1.799647
Ti	      3.85137      3.80459     -3.81001         1.763068      2.329807     -2.164429
O	      1.91211      1.93182     -1.95793        -2.685120     -2.555763      0.532596
O	      3.80122      3.77351     -1.86546         2.881506     -0.040132      1.979872
O	      1.94869      3.75127     -3.72757        -2.042440      0.520025     -3.309813
O	      3.75861      1.90149      0.00510         0.640468     -0.135038      2.784717
O	      3.79009      0.05282     -1.83176         0.528493     -3.480235     -0.675630
O	      1.82578      3.84208     -0.06964         0.500295      0.611877      3.447902
O	      3.73379      1.89443     -3.76960         0.482931     -2.229019     -2.399226
O	      1.88658      5.77512     -1.91332        -2.364525      3.411163      0.216740
