# total energy = -117.49785006 eV
 
CRYSTAL
PRIMVEC
1.998038 4.026645 2.009440 
3.979823 -2.013337 -1.993361 
-0.008133 4.019107 -3.995677 
PRIMCOORD
16 1
Li	      0.05804      0.07270     -0.10239        -0.523397     -0.304416      0.177999
Li	      1.85704      1.95810     -0.06032        -0.208838     -0.039769      0.750142
Li	      1.89084     -0.00153     -1.83662        -0.073258     -0.755368      0.106730
Li	      0.05838      1.88643     -1.78312        -0.644382     -0.041169     -0.139529
Ti	      3.80972      1.92791     -1.85182         1.660902     -0.140063      0.133024
Ti	      1.90156      3.91411     -1.89925        -1.455267      0.320824      0.202662
Ti	      3.73766      5.69429     -1.96084         1.441277      2.242176     -1.589917
Ti	      3.89180      3.84453     -3.85001         1.478350      1.973314     -1.793426
O	      1.93219      1.95210     -1.97848        -2.270302     -2.178420      0.490189
O	      3.84113      3.81312     -1.88505         2.441893     -0.029746      1.674790
O	      1.96915      3.79065     -3.76670        -1.730160      0.471136     -2.778668
O	      3.79806      1.92145      0.00516         0.555008     -0.113851      2.314268
O	      3.82988      0.05337     -1.85098         0.439907     -2.941718     -0.612590
O	      1.84495      3.88241     -0.07036         0.449556      0.530152      2.890859
O	      3.77299      1.91432     -3.80918         0.415797     -1.891863     -2.026309
O	      1.90638      5.83574     -1.93341        -1.977087      2.898781      0.199777
