# total energy = -118.98804781 eV
 
CRYSTAL
PRIMVEC
2.018851 4.068590 2.030372 
4.021280 -2.034310 -2.014125 
-0.008218 4.060973 -4.037299 
PRIMCOORD
16 1
Li	      0.05925      0.07423     -0.10454        -0.375193     -0.226903      0.124812
Li	      1.89593      1.99910     -0.06159        -0.135542     -0.006840      0.527326
Li	      1.93043     -0.00156     -1.87508        -0.039604     -0.536826      0.078970
Li	      0.05960      1.92594     -1.82046        -0.441605     -0.037453     -0.106258
Ti	      3.88950      1.96828     -1.89060         1.063804     -0.078474      0.152649
Ti	      1.94139      3.99607     -1.93902        -0.894775      0.250877      0.149600
Ti	      3.81593      5.81354     -2.00191         0.868529      1.426007     -1.181596
Ti	      3.97331      3.92504     -3.93063         0.992520      1.344927     -1.167529
O	      1.97265      1.99299     -2.01992        -1.538281     -1.497787      0.390955
O	      3.92157      3.89298     -1.92453         1.666309     -0.015366      1.126443
O	      2.01038      3.87003     -3.84558        -1.177085      0.368949     -1.849459
O	      3.87760      1.96169      0.00527         0.394665     -0.073832      1.511639
O	      3.91008      0.05449     -1.88975         0.287945     -1.990891     -0.464879
O	      1.88359      3.96372     -0.07184         0.342213      0.375354      1.924799
O	      3.85200      1.95441     -3.88895         0.298182     -1.293263     -1.375003
O	      1.94631      5.95796     -1.97390        -1.312080      1.991521      0.157530
