# total energy = -119.53176393 eV
 
CRYSTAL
PRIMVEC
2.029258 4.089562 2.040837 
4.042008 -2.044796 -2.024508 
-0.008260 4.081906 -4.058109 
PRIMCOORD
16 1
Li	      0.05987      0.07499     -0.10562        -0.303476     -0.188636      0.100884
Li	      1.91553      2.01977     -0.06223        -0.106684      0.000441      0.425766
Li	      1.95039     -0.00157     -1.89447        -0.026879     -0.435501      0.066428
Li	      0.06022      1.94584     -1.83927        -0.353690     -0.034893     -0.086609
Ti	      3.92970      1.98863     -1.91014         0.818982     -0.056051      0.154072
Ti	      1.96145      4.03737     -1.95906        -0.673394      0.216217      0.126456
Ti	      3.85537      5.87364     -2.02260         0.638217      1.084113     -0.986239
Ti	      4.01437      3.96561     -3.97126         0.787844      1.070260     -0.910466
O	      1.99304      2.01359     -2.04079        -1.214332     -1.196681      0.331274
O	      3.96210      3.93322     -1.94442         1.319403     -0.003844      0.890130
O	      2.03116      3.91003     -3.88533        -0.930191      0.307707     -1.447533
O	      3.91768      1.98197      0.00532         0.322886     -0.055596      1.174168
O	      3.95050      0.05505     -1.90928         0.225721     -1.573311     -0.388252
O	      1.90306      4.00469     -0.07258         0.282465      0.306133      1.503881
O	      3.89182      1.97461     -3.92914         0.240172     -1.028963     -1.086598
O	      1.96642      6.01953     -1.99430        -1.027044      1.588602      0.132636
