# total energy = -119.95507842 eV
 
CRYSTAL
PRIMVEC
2.039664 4.110534 2.051303 
4.062736 -2.055282 -2.034890 
-0.008303 4.102839 -4.078920 
PRIMCOORD
16 1
Li	      0.06048      0.07576     -0.10670        -0.236065     -0.148018      0.078326
Li	      1.93523      2.04054     -0.06287        -0.081871      0.007701      0.329053
Li	      1.97044     -0.00159     -1.91395        -0.015879     -0.339253      0.053725
Li	      0.06084      1.96585     -1.85819        -0.272479     -0.027876     -0.066653
Ti	      3.97011      2.00907     -1.92978         0.606980     -0.038617      0.150186
Ti	      1.98162      4.07889     -1.97921        -0.484499      0.181380      0.105840
Ti	      3.89502      5.93403     -2.04340         0.439918      0.781198     -0.797733
Ti	      4.05565      4.00639     -4.01210         0.605996      0.819856     -0.687743
O	      2.01353      2.03429     -2.06178        -0.914594     -0.915148      0.266086
O	      4.00284      3.97366     -1.96441         1.001408     -0.000108      0.677423
O	      2.05205      3.95024     -3.92528        -0.705501      0.245576     -1.075412
O	      3.95797      2.00235      0.00538         0.253062     -0.039853      0.874986
O	      3.99112      0.05562     -1.92891         0.166704     -1.191413     -0.303940
O	      1.92263      4.04587     -0.07333         0.216338      0.234883      1.117640
O	      3.93184      1.99491     -3.96955         0.190718     -0.785080     -0.829825
O	      1.98664      6.08143     -2.01481        -0.770238      1.214770      0.108039
