# total energy = -90.09991213 eV
 
CRYSTAL
PRIMVEC
-4.144225 0.000057 -0.000002 
0.000002 -0.000049 4.144210 
-0.000080 8.433304 -0.000041 
PRIMCOORD
16 1
Li	     -2.07343      2.25933      0.00040        -0.000952     -0.008141     -0.000066
Li	     -0.00236      4.21616      4.14416        -0.000519     -0.000197      0.000488
Li	     -2.07360      6.17203      0.00002        -0.000139      0.010897      0.000267
Li	     -2.07422      4.21443      2.07209        -0.000003      0.001936      0.000259
Mn	     -0.00105      8.43276      0.00020        -0.000319     -0.001888     -0.000075
Mn	     -2.07317      8.43290      2.07232        -0.000236     -0.002091     -0.000172
Ni	     -0.00116      2.23507      2.07244        -0.000157     -0.003498     -0.000753
Ni	     -0.00133      6.19692      2.07212         0.000434      0.004607      0.000446
O	     -2.07321      1.91152      2.07240         0.000723     -0.035668     -0.000531
O	     -0.00201      4.21600      2.07209         0.000576     -0.000875      0.000482
O	     -2.07330      6.52105      2.07216         0.000040      0.035715      0.000240
O	     -0.00103      1.91126      0.00026         0.000207     -0.035982      0.000022
O	     -2.07419      4.21579      0.00003         0.000644     -0.001091      0.000149
O	     -0.00108      8.43281      2.07230        -0.000445      0.000460     -0.000287
O	     -0.00121      6.52078      0.00008         0.000061      0.035685     -0.000144
O	     -2.07324      8.43298      0.00021         0.000084      0.000130     -0.000324
