# total energy = -120.26769810 eV
 
CRYSTAL
PRIMVEC
2.050071 4.131506 2.061769 
4.083465 -2.065768 -2.045272 
-0.008345 4.123772 -4.099731 
PRIMCOORD
16 1
Li	      0.06110      0.07654     -0.10780        -0.171648     -0.111722      0.058695
Li	      1.95503      2.06141     -0.06351        -0.059658      0.010784      0.241107
Li	      1.99060     -0.00161     -1.93353        -0.006026     -0.251152      0.039911
Li	      0.06146      1.98596     -1.87720        -0.198782     -0.021184     -0.049083
Ti	      4.01073      2.02962     -1.94952         0.423951     -0.024528      0.143093
Ti	      2.00189      4.12062     -1.99945        -0.324719      0.146080      0.087313
Ti	      3.93486      5.99474     -2.06430         0.272295      0.511618     -0.616320
Ti	      4.09714      4.04737     -4.05314         0.445607      0.592678     -0.495717
O	      2.03413      2.05510     -2.08287        -0.638842     -0.656965      0.197349
O	      4.04379      4.01432     -1.98451         0.708055      0.008120      0.482318
O	      2.07304      3.99065     -3.96543        -0.498384      0.182161     -0.738224
O	      3.99846      2.02283      0.00543         0.186574     -0.021489      0.612656
O	      4.03195      0.05619     -1.94865         0.117219     -0.842507     -0.219295
O	      1.94230      4.08726     -0.07408         0.150178      0.171240      0.765734
O	      3.97206      2.01532     -4.01015         0.141269     -0.562846     -0.591852
O	      2.00697      6.14364     -2.03542        -0.547090      0.869711      0.082314
