# total energy = -120.47868934 eV
 
CRYSTAL
PRIMVEC
2.060477 4.152478 2.072235 
4.104193 -2.076254 -2.055654 
-0.008387 4.144705 -4.120542 
PRIMCOORD
16 1
Li	      0.06172      0.07732     -0.10889        -0.110592     -0.073341      0.040767
Li	      1.97492      2.08240     -0.06415        -0.037360      0.015356      0.159487
Li	      2.01086     -0.00162     -1.95321        -0.000260     -0.165016      0.025645
Li	      0.06209      2.00617     -1.89630        -0.129223     -0.014164     -0.030892
Ti	      4.05155      2.05028     -1.96936         0.268483     -0.011964      0.134064
Ti	      2.02227      4.16256     -2.01980        -0.191909      0.111046      0.072291
Ti	      3.97491      6.05575     -2.08531         0.133246      0.275510     -0.442289
Ti	      4.13884      4.08857     -4.09439         0.302800      0.389688     -0.331043
O	      2.05484      2.07602     -2.10407        -0.388285     -0.416013      0.122756
O	      4.08495      4.05517     -2.00471         0.437688      0.009386      0.302454
O	      2.09414      4.03127     -4.00580        -0.312005      0.114726     -0.437569
O	      4.03915      2.04342      0.00549         0.128786     -0.009825      0.381020
O	      4.07299      0.05676     -1.96848         0.070574     -0.523537     -0.132007
O	      1.96206      4.12886     -0.07483         0.078014      0.108896      0.447186
O	      4.01248      2.03583     -4.05097         0.097537     -0.357691     -0.376607
O	      2.02740      6.20618     -2.05614        -0.347494      0.546943      0.064736
