# total energy = -120.59566431 eV
 
CRYSTAL
PRIMVEC
2.070883 4.173450 2.082701 
4.124921 -2.086740 -2.066036 
-0.008430 4.165637 -4.141353 
PRIMCOORD
16 1
Li	      0.06235      0.07810     -0.11000        -0.052237     -0.031403      0.023071
Li	      1.99492      2.10348     -0.06480        -0.019998      0.012164      0.081936
Li	      2.03122     -0.00164     -1.97298         0.001214     -0.085122      0.016288
Li	      0.06272      2.02649     -1.91551        -0.067772     -0.003913     -0.013663
Ti	      4.09257      2.07104     -1.98930         0.138797     -0.003276      0.121067
Ti	      2.04275      4.20471     -2.04026        -0.082921      0.074788      0.058892
Ti	      4.01516      6.11708     -2.10643         0.019439      0.066956     -0.275687
Ti	      4.18075      4.12997     -4.13585         0.177109      0.204978     -0.190973
O	      2.07564      2.09704     -2.12538        -0.157439     -0.190658      0.047208
O	      4.12631      4.09623     -2.02501         0.190881      0.015394      0.139105
O	      2.11535      4.07209     -4.04636        -0.138375      0.046524     -0.154488
O	      4.08005      2.06411      0.00554         0.072232      0.000435      0.175265
O	      4.11423      0.05734     -1.98841         0.028191     -0.232213     -0.040217
O	      1.98193      4.17067     -0.07559         0.003849      0.049102      0.155233
O	      4.05312      2.05645     -4.09199         0.055034     -0.168189     -0.180107
O	      2.04792      6.26902     -2.07696        -0.168005      0.244435      0.037070
