# total energy = -120.45868299 eV
 
CRYSTAL
PRIMVEC
2.102103 4.236367 2.114098 
4.187106 -2.118199 -2.097182 
-0.008557 4.228436 -4.203785 
PRIMCOORD
16 1
Li	      0.06424      0.08047     -0.11334         0.104920      0.093374     -0.023184
Li	      2.05552      2.16738     -0.06677         0.028652     -0.006747     -0.122457
Li	      2.09293     -0.00169     -2.03292         0.009128      0.123889     -0.023822
Li	      0.06462      2.08805     -1.97369         0.085542      0.021720      0.043789
Ti	      4.21690      2.13396     -2.04974        -0.126231      0.024831      0.062810
Ti	      2.10480      4.33244     -2.10224         0.122110     -0.039689      0.027574
Ti	      4.13713      6.30290     -2.17042        -0.186107     -0.395409      0.175014
Ti	      4.30775      4.25543     -4.26149        -0.114057     -0.236449      0.103896
O	      2.13870      2.16075     -2.18994         0.421457      0.381301     -0.199044
O	      4.25166      4.22067     -2.08652        -0.443093      0.015993     -0.242089
O	      2.17961      4.19579     -4.16928         0.298533     -0.183001      0.516752
O	      4.20400      2.12682      0.00571        -0.085252      0.034750     -0.279709
O	      4.23921      0.05908     -2.04882        -0.069512      0.503249      0.251044
O	      2.04214      4.29736     -0.07788        -0.241143     -0.117605     -0.567363
O	      4.17624      2.11892     -4.21630        -0.042224      0.314643      0.327739
O	      2.11014      6.45947     -2.14005         0.237278     -0.534849     -0.050949
