# total energy = -120.27194614 eV
 
CRYSTAL
PRIMVEC
2.112509 4.257339 2.124564 
4.207834 -2.128685 -2.107564 
-0.008599 4.249369 -4.224596 
PRIMCOORD
16 1
Li	      0.06488      0.08127     -0.11447         0.151629      0.140544     -0.035416
Li	      2.07593      2.18889     -0.06743         0.042254     -0.015101     -0.181778
Li	      2.11370     -0.00171     -2.05309         0.009081      0.187967     -0.034382
Li	      0.06526      2.10878     -1.99329         0.128919      0.033332      0.061601
Ti	      4.25876      2.15514     -2.07008        -0.177179      0.033348      0.037847
Ti	      2.12569      4.37545     -2.12310         0.156416     -0.081718      0.020425
Ti	      4.17820      6.36546     -2.19196        -0.216645     -0.504455      0.310270
Ti	      4.35051      4.29767     -4.30379        -0.186922     -0.352733      0.166528
O	      2.15993      2.18219     -2.21168         0.586697      0.547505     -0.284970
O	      4.29386      4.26257     -2.10723        -0.622835      0.006689     -0.348943
O	      2.20124      4.23744     -4.21066         0.421140     -0.264484      0.694179
O	      4.24572      2.14793      0.00577        -0.134377      0.044622     -0.389328
O	      4.28129      0.05966     -2.06915        -0.090863      0.706389      0.353288
O	      2.06241      4.34002     -0.07866        -0.328933     -0.167856     -0.760865
O	      4.21770      2.13995     -4.25814        -0.067686      0.451819      0.469921
O	      2.13108      6.52358     -2.16129         0.329304     -0.765869     -0.078378
