# total energy = -120.02492289 eV
 
CRYSTAL
PRIMVEC
2.122916 4.278311 2.135030 
4.228562 -2.139171 -2.117946 
-0.008642 4.270302 -4.245407 
PRIMCOORD
16 1
Li	      0.06552      0.08208     -0.11559         0.196430      0.190105     -0.044316
Li	      2.09643      2.21051     -0.06810         0.053427     -0.025194     -0.236965
Li	      2.13458     -0.00172     -2.07337         0.008225      0.249339     -0.045550
Li	      0.06591      2.12960     -2.01297         0.167261      0.044186      0.079140
Ti	      4.30082      2.17642     -2.09053        -0.213225      0.042337      0.008758
Ti	      2.14669      4.41866     -2.14407         0.174440     -0.125523      0.016196
Ti	      4.21946      6.42833     -2.21361        -0.230855     -0.591080      0.438875
Ti	      4.39348      4.34011     -4.34630        -0.249337     -0.454878      0.213053
O	      2.18126      2.20374     -2.23352         0.734706      0.701302     -0.374211
O	      4.33627      4.30466     -2.12804        -0.785225     -0.001278     -0.439488
O	      2.22298      4.27929     -4.25225         0.531791     -0.354179      0.848012
O	      4.28766      2.16914      0.00583        -0.177573      0.047845     -0.480048
O	      4.32358      0.06025     -2.08959        -0.113038      0.896599      0.458195
O	      2.08278      4.38288     -0.07944        -0.411834     -0.217990     -0.936436
O	      4.25935      2.16108     -4.30020        -0.090414      0.578612      0.606826
O	      2.15213      6.58801     -2.18264         0.405221     -0.980202     -0.112040
