# total energy = -119.72293886 eV
 
CRYSTAL
PRIMVEC
2.133322 4.299283 2.145496 
4.249291 -2.149657 -2.128328 
-0.008684 4.291235 -4.266217 
PRIMCOORD
16 1
Li	      0.06616      0.08288     -0.11673         0.237944      0.242295     -0.054898
Li	      2.11703      2.23224     -0.06877         0.059778     -0.033311     -0.289174
Li	      2.15556     -0.00174     -2.09375         0.005667      0.305257     -0.059122
Li	      0.06656      2.15053     -2.03275         0.203930      0.054310      0.095111
Ti	      4.34308      2.19781     -2.11107        -0.236291      0.050689     -0.024761
Ti	      2.16779      4.46209     -2.16514         0.177862     -0.171115      0.014309
Ti	      4.26093      6.49151     -2.23536        -0.230217     -0.660689      0.559776
Ti	      4.43666      4.38277     -4.38901        -0.303786     -0.546329      0.244536
O	      2.20270      2.22540     -2.25547         0.866741      0.842561     -0.461829
O	      4.37889      4.34697     -2.14896        -0.933395     -0.006600     -0.518971
O	      2.24483      4.32135     -4.29404         0.634635     -0.443113      0.985124
O	      4.32980      2.19046      0.00588        -0.226124      0.050023     -0.550415
O	      4.36607      0.06084     -2.11013        -0.125382      1.074773      0.565786
O	      2.10325      4.42595     -0.08021        -0.497059     -0.263318     -1.093546
O	      4.30121      2.18233     -4.34246        -0.102320      0.695670      0.733967
O	      2.17328      6.65275     -2.20409         0.468017     -1.191103     -0.145893
