# total energy = -119.37079729 eV
 
CRYSTAL
PRIMVEC
2.143729 4.320255 2.155962 
4.270019 -2.160143 -2.138711 
-0.008726 4.312167 -4.287028 
PRIMCOORD
16 1
Li	      0.06681      0.08370     -0.11787         0.278485      0.300494     -0.064341
Li	      2.13774      2.25407     -0.06944         0.067802     -0.043466     -0.340361
Li	      2.17664     -0.00176     -2.11423         0.003743      0.357916     -0.070726
Li	      0.06720      2.17157     -2.05264         0.239188      0.066657      0.111055
Ti	      4.38556      2.21931     -2.13172        -0.245330      0.061289     -0.064129
Ti	      2.18899      4.50572     -2.18632         0.171032     -0.220787      0.015133
Ti	      4.30261      6.55499     -2.25722        -0.215593     -0.712919      0.672382
Ti	      4.48005      4.42563     -4.43193        -0.354201     -0.624967      0.264605
O	      2.22424      2.24717     -2.27753         0.985999      0.971516     -0.553788
O	      4.42171      4.38948     -2.16997        -1.075813     -0.018259     -0.584486
O	      2.26678      4.36361     -4.33604         0.724655     -0.537004      1.107308
O	      4.37214      2.21188      0.00594        -0.268863      0.052446     -0.603835
O	      4.40877      0.06144     -2.13077        -0.138942      1.240866      0.673738
O	      2.12382      4.46924     -0.08100        -0.585345     -0.312958     -1.233061
O	      4.34328      2.20366     -4.38493        -0.106365      0.807098      0.851168
O	      2.19453      6.71782     -2.22565         0.519547     -1.387921     -0.180662
