# total energy = -118.97231517 eV
 
CRYSTAL
PRIMVEC
2.154135 4.341227 2.166427 
4.290747 -2.170629 -2.149093 
-0.008769 4.333100 -4.307839 
PRIMCOORD
16 1
Li	      0.06746      0.08451     -0.11902         0.319081      0.364168     -0.070471
Li	      2.15854      2.27601     -0.07012         0.080029     -0.054138     -0.388543
Li	      2.19782     -0.00177     -2.13481         0.001288      0.409125     -0.084991
Li	      0.06786      2.19270     -2.07261         0.271508      0.075697      0.129118
Ti	      4.42824      2.24090     -2.15247        -0.241890      0.074583     -0.107952
Ti	      2.21029      4.54958     -2.20760         0.153488     -0.275132      0.020059
Ti	      2.19034      2.27756     -4.44562        -0.187526     -0.748681      0.777273
Ti	      4.52365      4.46870     -4.47507        -0.401768     -0.692115      0.277754
O	      2.24588      2.26904     -2.29969         1.093607      1.095060     -0.645763
O	      4.46475      4.43220     -2.19109        -1.200829     -0.025600     -0.638938
O	      2.28884      4.40607     -4.37824         0.808448     -0.633677      1.210934
O	      4.41469      2.23341      0.00600        -0.305849      0.049605     -0.642383
O	      4.45167      0.06204     -2.15150        -0.154139      1.391929      0.780692
O	      2.14449      4.51274     -0.08179        -0.675165     -0.356474     -1.359782
O	      4.38555      2.22511     -4.42761        -0.114301      0.910005      0.961009
O	      2.21589      6.78319     -2.24730         0.554018     -1.584355     -0.218015
