# total energy = -118.53198503 eV
 
CRYSTAL
PRIMVEC
2.164541 4.362199 2.176893 
4.311475 -2.181115 -2.159475 
-0.008811 4.354033 -4.328650 
PRIMCOORD
16 1
Li	      0.06811      0.08532     -0.12017         0.356936      0.432821     -0.077629
Li	      2.17945      2.29805     -0.07080         0.087195     -0.066065     -0.432737
Li	      2.21910     -0.00179     -2.15548        -0.003300      0.458658     -0.098672
Li	      0.06852      2.21394     -2.09269         0.301734      0.085043      0.144276
Ti	      4.47113      2.26261     -2.17331        -0.227353      0.091095     -0.165434
Ti	      2.23170      4.59364     -2.22898         0.123027     -0.336031      0.034233
Ti	      2.22201      2.32069     -4.47816        -0.145316     -0.767951      0.879157
Ti	      4.56746      4.51198     -4.51841        -0.448327     -0.750835      0.282035
O	      2.26764      2.29102     -2.32197         1.186714      1.209061     -0.739726
O	      4.50799      4.47513     -2.21231        -1.315916     -0.042036     -0.687312
O	      2.31101      4.44875     -4.42064         0.889272     -0.735239      1.294478
O	      4.45745      2.25504      0.00605        -0.344280      0.041013     -0.662838
O	      4.49479      0.06264     -2.17234        -0.161063      1.535421      0.894740
O	      2.16526      4.55645     -0.08258        -0.761836     -0.398827     -1.466995
O	      4.42802      2.24667     -4.47049        -0.116210      1.014639      1.063384
O	      2.23735      6.84889     -2.26907         0.578723     -1.770766     -0.260960
