# total energy = -92.04754097 eV
 
CRYSTAL
PRIMVEC
2.048115 4.157726 2.047961 
2.046448 -4.155962 2.046491 
4.090038 0.000082 -4.089927 
PRIMCOORD
16 1
Li	      4.12638     -2.07713      2.00977         0.017652      0.000154     -0.018371
Li	      4.07118      4.15411      0.02165        -0.005078      0.001437      0.005326
Li	      6.11523     -2.07700      0.02246        -0.002048     -0.000113      0.004705
Li	      4.10851      2.07982      2.03141         0.002995     -0.000083     -0.003444
Mn	      4.10051      0.00198      4.08552         0.030488     -0.001815     -0.030157
Mn	      4.08714      0.00138      0.00436        -0.041675      0.004099      0.040780
Ni	      2.06034      0.00120      2.03120         0.005995      0.000613     -0.006380
Ni	      6.12130      2.08008      0.01883        -0.018931     -0.000968      0.010726
O	      6.13658      0.00698     -0.02185        -0.069921     -0.110825      0.095866
O	      4.19977      1.91251      0.01576        -0.132758     -0.026686      0.006623
O	      4.11350     -0.00446     -2.04495        -0.094666      0.111530      0.067820
O	      4.07596     -0.07273      2.04270         0.113144      0.018502     -0.067251
O	      4.07584     -1.90904     -0.10817        -0.005981      0.023057      0.137092
O	      6.14010      2.20460     -1.92072         0.010412      0.033798     -0.121207
O	      2.04871      0.07493      0.01546         0.066897     -0.018551     -0.112287
O	      6.01246     -2.20231     -2.04843         0.123475     -0.034152     -0.009842
