# total energy = -118.05405959 eV
 
CRYSTAL
PRIMVEC
2.174948 4.383171 2.187359 
4.332204 -2.191602 -2.169857 
-0.008853 4.374966 -4.349461 
PRIMCOORD
16 1
Li	      0.06877      0.08615     -0.12133         0.391529      0.510729     -0.085005
Li	      2.20046      2.32020     -0.07148         0.095781     -0.074139     -0.478853
Li	      2.24049     -0.00181     -2.17626        -0.008069      0.506946     -0.110786
Li	      0.06918      2.23528     -2.11286         0.331026      0.092513      0.157930
Ti	      4.51422      2.28442     -2.19426        -0.210848      0.097059     -0.234561
Ti	      2.25321      4.63791     -2.25046         0.076181     -0.403861      0.063838
Ti	      2.25389      2.36413     -4.51081        -0.086406     -0.759676      0.984146
Ti	      4.61149      4.55547     -4.56196        -0.486659     -0.792939      0.256044
O	      2.28949      2.31310     -2.34435         1.256473      1.312420     -0.835246
O	      4.55144      4.51826     -2.23364        -1.416746     -0.069509     -0.734056
O	      2.33329      4.49163     -4.46325         0.965133     -0.834218      1.360277
O	      4.50042      2.27678      0.00611        -0.380372      0.018135     -0.662342
O	      4.53811      0.06324     -2.19328        -0.167779      1.666063      1.018971
O	      2.18613      4.60036     -0.08338        -0.825759     -0.438027     -1.557723
O	      4.47070      2.26832     -4.51358        -0.124197      1.122139      1.162693
O	      2.25892      6.91491     -2.29094         0.590712     -1.953634     -0.305329
