# total energy = -117.55086320 eV
 
CRYSTAL
PRIMVEC
2.185354 4.404143 2.197825 
4.352932 -2.202088 -2.180239 
-0.008896 4.395899 -4.370272 
PRIMCOORD
16 1
Li	      0.06943      0.08697     -0.12249         0.427608      0.603424     -0.091442
Li	      2.22156      2.34245     -0.07217         0.099491     -0.083446     -0.522684
Li	      2.26199     -0.00183     -2.19713        -0.011594      0.555932     -0.124421
Li	      0.06984      2.25671     -2.13312         0.358447      0.096784      0.178449
Ti	      4.55752      2.30633     -2.21531        -0.180817     -0.061395     -0.183759
Ti	      2.27482      4.68240     -2.27205         0.043307     -0.467835      0.086553
Ti	      2.28596      2.40788     -4.54356        -0.036183     -0.667132      1.095649
Ti	      4.65572      4.59917     -4.60572        -0.550633     -0.679887     -0.029366
O	      2.31146      2.33528     -2.36684         1.322201      1.415237     -0.950896
O	      4.59510      4.56160     -2.25507        -1.528079     -0.076398     -0.835579
O	      2.35567      4.53472     -4.50606         1.029703     -0.945641      1.426317
O	      4.54358      2.29861      0.00617        -0.412341     -0.042176     -0.515629
O	      4.58164      0.06385     -2.21432        -0.170297      1.688527      1.182275
O	      2.20710      4.64449     -0.08418        -0.885966     -0.479918     -1.667688
O	      4.51359      2.29008     -4.55688        -0.113485      1.292949      1.293686
O	      2.28059      6.98124     -2.31292         0.608639     -2.149024     -0.341464
