# total energy = -118.01994192 eV
 
CRYSTAL
PRIMVEC
1.965748 4.017276 1.994093 
3.983235 -2.034040 -1.995013 
-0.015705 4.015464 -3.969310 
PRIMCOORD
16 1
Li	      0.09059      0.05214     -0.06709        -0.376317     -0.406238      0.347158
Li	      1.89868      1.91925      0.00146        -0.270278      0.120361      0.730889
Li	      3.70646      3.79096      0.07043         0.333369     -0.072851      0.482839
Li	      1.89118      3.84899     -1.90356        -0.455726      0.332291      0.105368
Ti	      3.78877      1.91553     -1.89150         1.916288     -0.076797      0.166939
Ti	      0.03842      1.94189     -1.90957        -2.654570     -0.745753     -0.515489
Ti	      3.74388      5.75600     -1.89745         0.895641      1.495045     -1.345965
Ti	      3.81792      3.83028     -3.83120         1.381806      1.658358     -1.649650
O	      1.91229      1.90589     -1.89200        -0.552867     -0.538417      0.707307
O	      3.78083      3.83977     -1.86824         0.630920      0.337660      1.622558
O	      1.97393      3.73296     -3.80833        -1.923580      0.919827     -0.830853
O	      3.78783      1.87242      0.00863         0.655617     -0.143066      1.924540
O	      3.83354      0.01800     -1.92055         0.364580     -2.807428      0.112571
O	      1.80862      3.96481      0.00075         0.407339      0.269149      1.093838
O	      3.82542      1.90574     -3.85407         1.134300     -1.342432     -2.211121
O	      1.87010      5.79195     -1.91522        -1.486522      1.000291     -0.740929
