# total energy = -119.25363632 eV
 
CRYSTAL
PRIMVEC
1.986225 4.059122 2.014864 
4.024727 -2.055228 -2.015794 
-0.015869 4.057292 -4.010657 
PRIMCOORD
16 1
Li	      0.09249      0.05323     -0.06849        -0.258967     -0.294041      0.246991
Li	      1.93845      1.95945      0.00149        -0.179798      0.096904      0.507286
Li	      3.78408      3.87035      0.07190         0.217879     -0.073613      0.335493
Li	      1.93078      3.92960     -1.94342        -0.306380      0.241259      0.070828
Ti	      3.86811      1.95564     -1.93111         1.276979     -0.024206      0.138995
Ti	      0.03923      1.98256     -1.94956        -1.752314     -0.570049     -0.379104
Ti	      3.82229      5.87654     -1.93719         0.478993      0.940646     -0.966063
Ti	      3.89788      3.91049     -3.91143         0.889305      1.093145     -1.053917
O	      1.95234      1.94581     -1.93162        -0.403077     -0.374874      0.545032
O	      3.86000      3.92017     -1.90736         0.415233      0.260119      1.112448
O	      2.01527      3.81114     -3.88808        -1.267484      0.679966     -0.591424
O	      3.86715      1.91163      0.00881         0.463817     -0.058639      1.263440
O	      3.91382      0.01837     -1.96078         0.260556     -1.935650      0.048217
O	      1.84650      4.04784      0.00076         0.315119      0.204904      0.779010
O	      3.90553      1.94565     -3.93478         0.813502     -0.909428     -1.532021
O	      1.90926      5.91324     -1.95533        -0.963362      0.723556     -0.525209
