# total energy = -119.70565080 eV
 
CRYSTAL
PRIMVEC
1.996463 4.080045 2.025250 
4.045473 -2.065822 -2.026185 
-0.015951 4.078206 -4.031331 
PRIMCOORD
16 1
Li	      0.09345      0.05379     -0.06920        -0.206109     -0.241557      0.205598
Li	      1.95848      1.97970      0.00151        -0.142106      0.085037      0.405251
Li	      3.82319      3.91035      0.07264         0.167294     -0.071345      0.270885
Li	      1.95074      3.97022     -1.96351        -0.243515      0.195701      0.063261
Ti	      3.90810      1.97585     -1.95107         1.003442     -0.012931      0.126614
Ti	      0.03964      2.00305     -1.96971        -1.356295     -0.478843     -0.307769
Ti	      3.86180      5.93728     -1.95721         0.314002      0.715161     -0.790390
Ti	      3.93816      3.95091     -3.95186         0.686200      0.856602     -0.814099
O	      1.97252      1.96592     -1.95159        -0.328188     -0.301510      0.461006
O	      3.89990      3.96069     -1.92708         0.326036      0.222606      0.892665
O	      2.03610      3.85053     -3.92827        -0.984078      0.554455     -0.477964
O	      3.90712      1.93139      0.00890         0.373914     -0.023663      0.978060
O	      3.95427      0.01856     -1.98104         0.219182     -1.553966      0.020660
O	      1.86558      4.08968      0.00078         0.258541      0.185277      0.629440
O	      3.94590      1.96576     -3.97545         0.657785     -0.727321     -1.237110
O	      1.92900      5.97435     -1.97554        -0.746106      0.596297     -0.426108
