# total energy = -120.05858074 eV
 
CRYSTAL
PRIMVEC
2.006702 4.100969 2.035636 
4.066219 -2.076416 -2.036576 
-0.016032 4.099120 -4.052004 
PRIMCOORD
16 1
Li	      0.09441      0.05434     -0.06992        -0.155927     -0.190687      0.164234
Li	      1.97862      2.00006      0.00152        -0.108595      0.072311      0.310772
Li	      3.86251      3.95056      0.07339         0.125918     -0.068731      0.210134
Li	      1.97080      4.01104     -1.98370        -0.181730      0.152128      0.047625
Ti	      3.94828      1.99617     -1.97114         0.757187     -0.010141      0.115068
Ti	      0.04004      2.02365     -1.98996        -0.994084     -0.386495     -0.235191
Ti	      3.90151      5.99833     -1.97734         0.175264      0.521568     -0.622643
Ti	      3.97866      3.99154     -3.99250         0.509485      0.646901     -0.608358
O	      1.99280      1.98613     -1.97166        -0.259232     -0.233523      0.369733
O	      3.94000      4.00142     -1.94689         0.247792      0.191550      0.687040
O	      2.05704      3.89013     -3.96866        -0.726357      0.429251     -0.375223
O	      3.94729      1.95125      0.00899         0.291832      0.000531      0.733795
O	      3.99493      0.01875     -2.00141         0.168364     -1.198381     -0.000230
O	      1.88477      4.13173      0.00078         0.198362      0.161946      0.493018
O	      3.98648      1.98597     -4.01633         0.506286     -0.560876     -0.957527
O	      1.94883      6.03579     -1.99585        -0.554564      0.472646     -0.332247
