# total energy = -120.49782387 eV
 
CRYSTAL
PRIMVEC
2.027178 4.142815 2.056408 
4.107711 -2.097604 -2.057357 
-0.016196 4.140948 -4.093351 
PRIMCOORD
16 1
Li	      0.09634      0.05545     -0.07135        -0.065103     -0.088376      0.086977
Li	      2.01921      2.04108      0.00155        -0.048794      0.038871      0.143254
Li	      3.94174      4.03160      0.07490         0.048002     -0.046093      0.091295
Li	      2.01122      4.09331     -2.02439        -0.080405      0.072191      0.022247
Ti	      4.02927      2.03712     -2.01157         0.333617     -0.021852      0.087980
Ti	      0.04086      2.06516     -2.03078        -0.366309     -0.199593     -0.090543
Ti	      3.98154      6.12137     -2.01789        -0.028175      0.219453     -0.315422
Ti	      4.06027      4.07342     -4.07439         0.221672      0.297522     -0.282666
O	      2.03368      2.02687     -2.01210        -0.121581     -0.110605      0.179967
O	      4.02082      4.08350     -1.98683         0.119961      0.135345      0.331466
O	      2.09923      3.96992     -4.05006        -0.282356      0.169532     -0.184669
O	      4.02826      1.99127      0.00918         0.142136      0.031630      0.330577
O	      4.07688      0.01914     -2.04247         0.077465     -0.571831     -0.024734
O	      1.92343      4.21649      0.00080         0.065413      0.125709      0.241079
O	      4.06825      2.02671     -4.09871         0.223916     -0.283812     -0.463997
O	      1.98881      6.15959     -2.03679        -0.239461      0.231909     -0.152812
