# total energy = -120.59773735 eV
 
CRYSTAL
PRIMVEC
2.037416 4.163739 2.066794 
4.128457 -2.108198 -2.067748 
-0.016278 4.161862 -4.114025 
PRIMCOORD
16 1
Li	      0.09732      0.05602     -0.07207        -0.024014     -0.036462      0.052306
Li	      2.03966      2.06175      0.00157        -0.022771      0.021335      0.068305
Li	      3.98165      4.07243      0.07566         0.016590     -0.032853      0.036092
Li	      2.03159      4.13477     -2.04489        -0.037936      0.036119      0.009084
Ti	      4.07007      2.05775     -2.03194         0.153397     -0.030305      0.071485
Ti	      0.04128      2.08607     -2.05135        -0.095214     -0.106039     -0.021192
Ti	      4.02186      6.18335     -2.03833        -0.097189      0.107485     -0.177346
Ti	      4.10139      4.11466     -4.11565         0.107555      0.156633     -0.157219
O	      2.05427      2.04740     -2.03248        -0.057427     -0.049781      0.082129
O	      4.06154      4.12485     -2.00695         0.067310      0.100642      0.174021
O	      2.12049      4.01012     -4.09108        -0.093057      0.037513     -0.092229
O	      4.06906      2.01143      0.00927         0.075930      0.032200      0.164680
O	      4.11816      0.01934     -2.06315         0.033623     -0.288575     -0.028835
O	      1.94291      4.25918      0.00081        -0.010857      0.108578      0.124481
O	      4.10944      2.04724     -4.14022         0.099805     -0.171538     -0.242523
O	      2.00895      6.22197     -2.05742        -0.115745      0.115049     -0.063239
