# total energy = -91.42467997 eV
 
CRYSTAL
PRIMVEC
-4.119957 0.000006 0.000000 
-0.000005 0.000007 4.078082 
-0.000004 8.320496 -0.000007 
PRIMCOORD
16 1
Li	     -2.05956      2.15107      4.07650        -0.000589      0.033348      0.000502
Li	     -4.11968      4.04461      4.07644        -0.000341     -0.050185      0.001380
Li	     -2.05950      6.16645      4.07642         0.000039     -0.044272      0.000590
Li	     -4.11959      2.16601      2.03749         0.000129      0.031140     -0.000058
Mn	     -4.11948      0.04598      4.07656        -0.000747      0.217639      0.000228
Mn	     -2.05963      4.09778      2.03748         0.000256     -0.051596      0.000101
Ni	     -2.05950      0.13996      2.03759        -0.000419      0.024660     -0.000208
Ni	     -4.11955      6.19809      2.03740        -0.000048     -0.022619      0.000749
O	     -2.05961      2.20716      2.03757         0.000147      0.093406      0.000337
O	     -4.11962      4.20396      2.03733         0.000016     -0.154806      0.000669
O	     -2.05956      6.09341      2.03747         0.000089      0.004141     -0.001457
O	     -4.11955      1.88218      4.07657         0.000170     -0.212353     -0.001322
O	     -2.05966      4.14060      4.07649         0.000445      0.024644     -0.000013
O	     -4.11950      8.25756      2.03750         0.000585      0.097556     -0.001238
O	     -4.11952      6.44167      4.07652        -0.000048      0.048435     -0.000147
O	     -2.05952      0.02155      4.07661         0.000316     -0.039137     -0.000113
