# total energy = -120.58879634 eV
 
CRYSTAL
PRIMVEC
2.057893 4.205585 2.087566 
4.169949 -2.129386 -2.088529 
-0.016441 4.203689 -4.155372 
PRIMCOORD
16 1
Li	      0.09929      0.05715     -0.07353         0.050782      0.063140     -0.014621
Li	      2.08086      2.10340      0.00160         0.020060     -0.016511     -0.063553
Li	      4.06209      4.15469      0.07718        -0.043550      0.003076     -0.072630
Li	      2.07263      4.21829     -2.08620         0.032417     -0.035669     -0.008416
Ti	      4.15229      2.09932     -2.07299        -0.154181     -0.051989      0.035845
Ti	      0.04211      2.12821     -2.09279         0.367329      0.073460      0.111468
Ti	      4.10310      6.30827     -2.07951        -0.181139     -0.057561      0.070643
Ti	      4.18424      4.19778     -4.19879        -0.074595     -0.070487      0.033652
O	      2.09577      2.08876     -2.07353         0.072285      0.058435     -0.112047
O	      4.14359      4.20818     -2.04749        -0.003741      0.038878     -0.094581
O	      2.16333      4.09113     -4.17372         0.235988     -0.219890      0.070703
O	      4.15126      2.05207      0.00946        -0.052626      0.012058     -0.095566
O	      4.20136      0.01972     -2.10483        -0.052759      0.218358     -0.016841
O	      1.98216      4.34522      0.00082        -0.155480      0.084216     -0.093398
O	      4.19246      2.08859     -4.22386        -0.144217      0.020340      0.158609
O	      2.04954      6.34766     -2.09898         0.083427     -0.119855      0.090735
