# total energy = -120.49117943 eV
 
CRYSTAL
PRIMVEC
2.068131 4.226509 2.097951 
4.190695 -2.139980 -2.098920 
-0.016523 4.224603 -4.176045 
PRIMCOORD
16 1
Li	      0.10028      0.05771     -0.07426         0.084380      0.116100     -0.046310
Li	      2.10162      2.12438      0.00162         0.038707     -0.032795     -0.123190
Li	      4.10261      4.19614      0.07795        -0.067857      0.025419     -0.123039
Li	      2.09330      4.26037     -2.10701         0.063504     -0.068766     -0.017276
Ti	      4.19371      2.12026     -2.09367        -0.281295     -0.060569      0.015061
Ti	      0.04253      2.14944     -2.11366         0.564359      0.159749      0.174982
Ti	      2.07590      2.14469     -4.19820        -0.199048     -0.113891      0.176129
Ti	      4.22598      4.23965     -4.24068        -0.145564     -0.156387      0.101138
O	      2.11668      2.10959     -2.09422         0.133819      0.106268     -0.210774
O	      4.18492      4.25016     -2.06792        -0.031089     -0.000584     -0.205090
O	      2.18490      4.13194     -4.21536         0.376398     -0.347077      0.152022
O	      4.19267      2.07254      0.00955        -0.106969     -0.005744     -0.195806
O	      4.24326      0.01992     -2.12582        -0.089737      0.448492     -0.005956
O	      2.00193      4.38857      0.00083        -0.237008      0.075631     -0.194605
O	      4.23428      2.10943     -4.26599        -0.258691      0.089756      0.341205
O	      2.06998      6.41099     -2.11992         0.156093     -0.235602      0.161508
