# total energy = -120.13340196 eV
 
CRYSTAL
PRIMVEC
2.088608 4.268355 2.118723 
4.232187 -2.161168 -2.119701 
-0.016687 4.266431 -4.217392 
PRIMCOORD
16 1
Li	      0.10227      0.05887     -0.07574         0.141390      0.225112     -0.096960
Li	      2.14344      2.16666      0.00165         0.071066     -0.069448     -0.232873
Li	      2.09564      0.01128     -2.03922        -0.108803      0.072317     -0.224240
Li	      2.13496      4.34515     -2.14894         0.110934     -0.132438     -0.029411
Ti	      4.27717      2.16245     -2.13533        -0.488352     -0.076803     -0.025873
Ti	      0.04338      2.19222     -2.15572         0.891508      0.323798      0.304047
Ti	      2.13789      2.22963     -4.26076        -0.194754     -0.182161      0.353350
Ti	      4.31008      4.32403     -4.32507        -0.260684     -0.281749      0.189082
O	      2.15880      2.15157     -2.13590         0.251140      0.193617     -0.418752
O	      4.26820      4.33473     -2.10906        -0.055399     -0.073690     -0.394379
O	      2.22839      4.21417     -4.29924         0.624353     -0.593602      0.302492
O	      4.27610      2.11379      0.00974        -0.212585     -0.056085     -0.347268
O	      4.32770      0.02032     -2.16813        -0.165367      0.853857      0.028848
O	      2.04177      4.47590      0.00085        -0.397426      0.060047     -0.376289
O	      4.31854      2.15140     -4.35088        -0.463232      0.207284      0.677674
O	      2.11117      6.53856     -2.16210         0.256210     -0.470056      0.290552
