# total energy = -119.88236425 eV
 
CRYSTAL
PRIMVEC
2.098846 4.289279 2.129109 
4.252933 -2.171762 -2.130092 
-0.016768 4.287345 -4.238066 
PRIMCOORD
16 1
Li	      0.10328      0.05944     -0.07648         0.169727      0.282204     -0.120287
Li	      2.16450      2.18795      0.00167         0.085498     -0.089846     -0.281864
Li	      2.12653      0.03242     -2.04882        -0.128327      0.096505     -0.273729
Li	      2.15594      4.38786     -2.17006         0.127215     -0.163376     -0.035747
Ti	      4.31920      2.18370     -2.15631        -0.568412     -0.084319     -0.044714
Ti	      0.04381      2.21376     -2.17691         1.022343      0.401054      0.372223
Ti	      2.16919      2.27257     -4.29220        -0.172649     -0.199407      0.421276
Ti	      4.35244      4.36653     -4.36757        -0.308814     -0.322507      0.211205
O	      2.18002      2.17272     -2.15688         0.308985      0.233084     -0.525258
O	      4.31014      4.37734     -2.12979        -0.054040     -0.111643     -0.475278
O	      2.25029      4.25558     -4.34150         0.736429     -0.710471      0.379436
O	      4.31813      2.13456      0.00984        -0.261759     -0.090248     -0.399010
O	      4.37024      0.02051     -2.18944        -0.202101      1.037764      0.056741
O	      2.06184      4.51989      0.00085        -0.479530      0.054824     -0.464963
O	      4.36099      2.17254     -4.39364        -0.562164      0.254254      0.829165
O	      2.13192      6.60282     -2.18335         0.287599     -0.587870      0.350805
