# total energy = -119.58843518 eV
 
CRYSTAL
PRIMVEC
2.109084 4.310202 2.139495 
4.273679 -2.182356 -2.140483 
-0.016850 4.308259 -4.258739 
PRIMCOORD
16 1
Li	      0.10429      0.06002     -0.07723         0.193920      0.345093     -0.142317
Li	      2.18567      2.20935      0.00168         0.098912     -0.109223     -0.329339
Li	      2.15761      0.05376     -2.05843        -0.146814      0.122625     -0.324249
Li	      2.17703      4.43077     -2.19128         0.141191     -0.192733     -0.043517
Ti	      4.36144      2.20506     -2.17740        -0.632807     -0.096855     -0.059241
Ti	      0.04423      2.23541     -2.19820         1.131451      0.476664      0.445453
Ti	      2.20069      2.31582     -4.32375        -0.140464     -0.208220      0.473035
Ti	      4.39500      4.40923     -4.41029        -0.353629     -0.346482      0.213883
O	      2.20133      2.19397     -2.17798         0.362547      0.273589     -0.633307
O	      4.35230      4.42015     -2.15062        -0.037838     -0.145901     -0.542196
O	      2.27230      4.29720     -4.38396         0.838699     -0.828602      0.458881
O	      4.36036      2.15543      0.00994        -0.312537     -0.124450     -0.435352
O	      4.41298      0.02072     -2.21085        -0.239470      1.204861      0.087326
O	      2.08200      4.56410      0.00086        -0.560081      0.049665     -0.546792
O	      4.40363      2.19379     -4.43661        -0.651468      0.291298      0.970742
O	      2.15277      6.66740     -2.20471         0.308387     -0.711328      0.406991
