# total energy = -119.25582053 eV
 
CRYSTAL
PRIMVEC
2.119323 4.331125 2.149881 
4.294425 -2.192950 -2.150873 
-0.016932 4.329173 -4.279413 
PRIMCOORD
16 1
Li	      0.10530      0.06061     -0.07798         0.215025      0.410473     -0.164803
Li	      2.20694      2.23085      0.00170         0.109637     -0.127273     -0.370982
Li	      2.18890      0.07531     -2.06802        -0.165711      0.151990     -0.373696
Li	      2.19821      4.47389     -2.21261         0.151274     -0.220539     -0.050151
Ti	      4.40389      2.22652     -2.19859        -0.682774     -0.117875     -0.068311
Ti	      0.04466      2.25717     -2.21959         1.220098      0.549600      0.527437
Ti	      2.23240      2.35938     -4.35539        -0.098324     -0.208405      0.507067
Ti	      4.43778      4.45214     -4.45321        -0.394818     -0.354090      0.195390
O	      2.22276      2.21532     -2.19917         0.415621      0.306687     -0.742686
O	      4.39466      4.46316     -2.17155        -0.012129     -0.182293     -0.601120
O	      2.29441      4.33902     -4.42662         0.928808     -0.943779      0.527053
O	      4.40279      2.17641      0.01003        -0.360709     -0.153304     -0.449881
O	      4.45593      0.02092     -2.23236        -0.272161      1.354448      0.119594
O	      2.10226      4.60852      0.00087        -0.641514      0.045312     -0.627863
O	      4.44649      2.21514     -4.47979        -0.733786      0.325695      1.110358
O	      2.17372      6.73229     -2.22616         0.321462     -0.836649      0.462593
