# total energy = -118.07109811 eV
 
CRYSTAL
PRIMVEC
2.150037 4.393895 2.181039 
4.356663 -2.224732 -2.182045 
-0.017177 4.391914 -4.341433 
PRIMCOORD
16 1
Li	      0.10838      0.06238     -0.08026         0.265682      0.649178     -0.213724
Li	      2.27138      2.29598      0.00175         0.142034     -0.177390     -0.482841
Li	      2.28396      0.14119     -2.09679        -0.205135      0.238961     -0.536691
Li	      2.26239      4.60451     -2.27721         0.153218     -0.298908     -0.057713
Ti	      4.53247      2.29152     -2.26279        -0.772076     -0.313782     -0.037159
Ti	      0.04597      2.32307     -2.28439         1.407826      0.761669      0.871189
Ti	      2.32873      2.49194     -4.45094         0.071026     -0.167291      0.520933
Ti	      4.56734      4.58212     -4.58322        -0.480301     -0.197526     -0.047739
O	      2.28766      2.28000     -2.26338         0.534776      0.420709     -1.056404
O	      4.52296      4.59347     -2.23495         0.171391     -0.277982     -0.750281
O	      2.36140      4.46571     -4.55586         1.191594     -1.272287      0.749333
O	      4.53133      2.23995      0.01033        -0.531199     -0.249164     -0.404798
O	      4.58602      0.02153     -2.29754        -0.349740      1.700285      0.220087
O	      2.16364      4.74306      0.00090        -0.906904      0.027713     -0.851042
O	      4.57631      2.27981     -4.61058        -0.965266      0.406598      1.474183
O	      2.23718      6.92884     -2.29115         0.273075     -1.250784      0.602666
