# total energy = -115.85762418 eV
 
CRYSTAL
PRIMVEC
1.935132 3.928330 1.979918 
3.931108 -1.981382 -2.005572 
0.002979 3.935888 -3.976815 
PRIMCOORD
16 1
Li	      5.55196      1.88307     -0.12070         1.049748     -0.083085      0.234210
Li	      1.76486      1.92583     -0.04937        -0.506018     -0.896514      0.664293
Li	      3.80958      1.79627     -1.86893         0.191761     -0.508625     -0.137461
Li	      0.02229      1.83928     -1.79725        -0.902573      0.026964      0.201380
Ti	      3.70568      3.72721     -0.01883         2.916704      2.046434      2.427524
Ti	      1.83706      3.72558     -1.91859        -2.382507      0.005452     -1.497647
Ti	      3.70760      5.59650     -1.90781         1.384732      3.286820     -0.830472
Ti	      3.73966      3.73566     -3.77743         1.307354      2.390354     -2.568406
O	      1.85355      1.86355     -1.92325        -0.817563     -2.275176      0.787098
O	      3.74425      3.68747     -1.88980         3.125652     -2.428595      0.111843
O	      1.83257      3.77358     -3.80658        -2.447123      0.259050     -3.107476
O	      3.72056      1.85874      0.00439         0.432530     -1.975707      0.834594
O	      3.67110     -0.01265     -1.81568         1.397678     -1.880695     -0.643895
O	      1.90310      3.73516     -0.10266        -3.546792      0.925582      4.495793
O	      3.71399      1.86995     -3.78657         0.922248     -2.517821     -1.162813
O	      1.86298      5.59139     -1.90966        -2.125831      3.625561      0.191436
