# total energy = -91.01982786 eV
 
CRYSTAL
PRIMVEC
0.000030 2.078125 2.077533 
8.235495 0.003842 -0.003727 
0.003539 4.227351 -4.226126 
PRIMCOORD
16 1
Li	      4.19165      4.28038     -0.12518        -0.027655     -0.064549      0.065609
Li	      5.98811      4.17167     -2.09269         0.029363     -0.004045      0.002465
Li	      4.18365      6.22525     -2.06994        -0.010836      0.056924     -0.056399
Li	      2.22600      4.18866     -2.11675        -0.044627      0.000178      0.002488
Mn	      8.19346      6.28857     -2.13248         0.038479     -0.003079      0.003071
Mn	      2.16341      2.10973     -0.03198         0.112916     -0.018317      0.018549
Ni	      6.05049      2.12405     -0.04660        -0.053925     -0.039732      0.040196
Ni	      8.18129      4.23200     -0.07661         0.058126      0.036299     -0.036564
O	      6.21110      4.11741      0.03792        -0.152807      0.110559     -0.112296
O	      0.07962      4.23156     -2.15502         0.001670      0.068856     -0.072541
O	      6.31163      2.15087      2.00428        -0.012303     -0.079417      0.080835
O	      0.09718      2.10336     -0.02465         0.052296     -0.052579      0.054862
O	      2.01763      4.05386      0.10181         0.114290     -0.031654      0.031254
O	      4.08666      4.22141     -2.14379         0.025690     -0.008650      0.007854
O	      1.94340      0.12898     -0.12885         0.021019      0.024795     -0.024556
O	      3.97912      2.07036      0.00715        -0.151695      0.004412     -0.004827
