# total energy = -116.88995310 eV
 
CRYSTAL
PRIMVEC
1.945316 3.949006 1.990339 
3.951798 -1.991811 -2.016128 
0.002995 3.956603 -3.997746 
PRIMCOORD
16 1
Li	      5.61055      1.90294     -0.12197         0.915288     -0.063288      0.206529
Li	      1.78349      1.94615     -0.04990        -0.435995     -0.771846      0.566711
Li	      3.84978      1.81523     -1.88865         0.155380     -0.455542     -0.109801
Li	      0.02253      1.85869     -1.81621        -0.776929      0.023909      0.179104
Ti	      3.74479      3.76655     -0.01902         2.476105      1.736649      2.006097
Ti	      1.85645      3.76490     -1.93884        -1.932823     -0.041236     -1.322639
Ti	      3.74673      5.65557     -1.92795         1.109092      2.776910     -0.712307
Ti	      3.77913      3.77509     -3.81729         1.024210      2.117848     -2.105818
O	      1.87312      1.88322     -1.94355        -0.724549     -1.884289      0.741621
O	      3.78377      3.72638     -1.90975         2.687248     -2.074512      0.104338
O	      1.85192      3.81341     -3.84676        -2.089913      0.216855     -2.668713
O	      3.75983      1.87835      0.00444         0.392622     -1.665448      0.679743
O	      3.70984     -0.01278     -1.83485         1.226010     -1.651008     -0.593050
O	      1.92318      3.77458     -0.10374        -3.035597      0.798523      3.876754
O	      3.75319      1.88969     -3.82653         0.785282     -2.142113     -1.022856
O	      1.88265      5.65040     -1.92981        -1.775430      3.078587      0.174289
