# total energy = -117.77097130 eV
 
CRYSTAL
PRIMVEC
1.955501 3.969681 2.000759 
3.972488 -2.002239 -2.026684 
0.003011 3.977318 -4.018676 
PRIMCOORD
16 1
Li	      5.66945      1.92292     -0.12325         0.785459     -0.047364      0.175116
Li	      1.80221      1.96658     -0.05042        -0.374532     -0.655053      0.477437
Li	      3.89020      1.83429     -1.90848         0.127602     -0.398993     -0.088658
Li	      0.02276      1.87821     -1.83528        -0.661481      0.019297      0.160119
Ti	      3.78410      3.80609     -0.01923         2.074771      1.452069      1.642033
Ti	      1.87594      3.80442     -1.95920        -1.536386     -0.081408     -1.155354
Ti	      3.78607      5.71494     -1.94819         0.867426      2.319248     -0.603176
Ti	      3.81881      3.81472     -3.85737         0.781662      1.864542     -1.694377
O	      1.89278      1.90299     -1.96395        -0.636207     -1.531821      0.684392
O	      3.82349      3.76550     -1.92980         2.285266     -1.749906      0.097160
O	      1.87136      3.85344     -3.88714        -1.763514      0.169157     -2.259386
O	      3.79930      1.89807      0.00449         0.353491     -1.389327      0.539975
O	      3.74879     -0.01291     -1.85411         1.058778     -1.432691     -0.541612
O	      1.94337      3.81420     -0.10483        -2.565303      0.677423      3.302254
O	      3.79259      1.90953     -3.86670         0.660409     -1.796971     -0.891548
O	      1.90241      5.70972     -1.95007        -1.457439      2.581799      0.155627
