# total energy = -118.51184529 eV
 
CRYSTAL
PRIMVEC
1.965686 3.990356 2.011180 
3.993178 -2.012667 -2.037239 
0.003026 3.998033 -4.039607 
PRIMCOORD
16 1
Li	      5.72866      1.94301     -0.12454         0.670941     -0.038769      0.148363
Li	      1.82103      1.98712     -0.05095        -0.321257     -0.549882      0.397748
Li	      3.93082      1.85344     -1.92841         0.100991     -0.345417     -0.067705
Li	      0.02300      1.89782     -1.85445        -0.555814      0.016744      0.139214
Ti	      3.82363      3.84584     -0.01943         1.714562      1.187585      1.333401
Ti	      1.89553      3.84416     -1.97965        -1.199442     -0.103272     -0.990334
Ti	      3.82561      5.77463     -1.96853         0.656341      1.911811     -0.500393
Ti	      3.85869      3.85456     -3.89765         0.581662      1.614382     -1.346399
O	      1.91255      1.92286     -1.98447        -0.547418     -1.222896      0.614200
O	      3.86342      3.80483     -1.94995         1.919855     -1.451308      0.080908
O	      1.89090      3.89369     -3.92774        -1.464042      0.131143     -1.881977
O	      3.83898      1.91790      0.00454         0.312773     -1.145183      0.416422
O	      3.78794     -0.01305     -1.87348         0.901457     -1.221276     -0.481176
O	      1.96367      3.85404     -0.10593        -2.124670      0.568770      2.761586
O	      3.83220      1.92947     -3.90709         0.538176     -1.477438     -0.760919
O	      1.92228      5.76935     -1.97044        -1.184114      2.125006      0.137062
