# total energy = -119.12403022 eV
 
CRYSTAL
PRIMVEC
1.975871 4.011032 2.021601 
4.013868 -2.023096 -2.047795 
0.003042 4.018749 -4.060538 
PRIMCOORD
16 1
Li	      5.78819      1.96319     -0.12584         0.557145     -0.026608      0.126106
Li	      1.83995      2.00777     -0.05148        -0.263965     -0.451645      0.323901
Li	      3.97166      1.87270     -1.94845         0.075143     -0.292363     -0.052416
Li	      0.02324      1.91754     -1.87372        -0.456361      0.017668      0.119182
Ti	      3.86335      3.88579     -0.01963         1.391064      0.943107      1.074575
Ti	      1.91523      3.88410     -2.00022        -0.924548     -0.096943     -0.824542
Ti	      3.86535      5.83463     -1.98899         0.476361      1.553509     -0.403059
Ti	      3.89878      3.89461     -3.93815         0.430739      1.355727     -1.057645
O	      1.93242      1.94284     -2.00509        -0.464494     -0.961234      0.539279
O	      3.90356      3.84436     -1.97021         1.578465     -1.183886      0.062936
O	      1.91055      3.93414     -3.96855        -1.182071      0.099181     -1.531679
O	      3.87887      1.93782      0.00458         0.270509     -0.926881      0.307986
O	      3.82730     -0.01319     -1.89294         0.748390     -1.023313     -0.420063
O	      1.98407      3.89408     -0.10703        -1.723254      0.466237      2.254052
O	      3.87201      1.94952     -3.94768         0.430672     -1.196411     -0.637001
O	      1.94225      5.82929     -1.99091        -0.943796      1.723852      0.118388
