# total energy = -120.00548540 eV
 
CRYSTAL
PRIMVEC
1.996241 4.052383 2.042442 
4.055248 -2.043952 -2.068906 
0.003073 4.060179 -4.102399 
PRIMCOORD
16 1
Li	      5.90814      2.00388     -0.12844         0.355286     -0.015664      0.077729
Li	      1.87808      2.04938     -0.05254        -0.165991     -0.278097      0.188623
Li	      4.05398      1.91151     -1.98883         0.039664     -0.187585     -0.024714
Li	      0.02372      1.95727     -1.91255        -0.278684      0.016189      0.077066
Ti	      3.94342      3.96633     -0.02003         0.838236      0.535588      0.652461
Ti	      1.95492      3.96460     -2.04168        -0.533142     -0.072699     -0.513265
Ti	      3.94547      5.95555     -2.03020         0.209094      0.934373     -0.232183
Ti	      3.97958      3.97533     -4.01977         0.241803      0.870359     -0.602997
O	      1.97247      1.98310     -2.04664        -0.296727     -0.528878      0.369378
O	      3.98446      3.92403     -2.01104         0.956530     -0.727417      0.038289
O	      1.95014      4.01567     -4.05079        -0.700335      0.066474     -0.911004
O	      3.95925      1.97798      0.00468         0.181043     -0.554214      0.139480
O	      3.90662     -0.01346     -1.93217         0.448355     -0.653268     -0.278062
O	      2.02519      3.97478     -0.10925        -1.002990      0.283433      1.342235
O	      3.95226      1.98992     -4.02950         0.246855     -0.719073     -0.407960
O	      1.98250      5.95010     -2.03217        -0.538996      1.030478      0.084923
