# total energy = -120.48646535 eV
 
CRYSTAL
PRIMVEC
2.016611 4.093734 2.063283 
4.096628 -2.064809 -2.090018 
0.003105 4.101609 -4.144260 
PRIMCOORD
16 1
Li	      6.02933      2.04498     -0.13108         0.170404     -0.003713      0.034029
Li	      1.91661      2.09142     -0.05362        -0.083846     -0.132511      0.084816
Li	      4.13714      1.95072     -2.02962         0.019232     -0.088376     -0.005683
Li	      0.02421      1.99743     -1.95178        -0.129949      0.008753      0.044249
Ti	      4.02431      4.04768     -0.02044         0.387986      0.219149      0.310071
Ti	      1.99502      4.04592     -2.08356        -0.263292     -0.063337     -0.247514
Ti	      4.02640      6.07771     -2.07185         0.055920      0.419052     -0.103458
Ti	      4.06121      4.05687     -4.10222         0.142801      0.445848     -0.257914
O	      2.01293      2.02378     -2.08862        -0.141541     -0.197568      0.192041
O	      4.06619      4.00453     -2.05230         0.433202     -0.335888      0.008434
O	      1.99015      4.09804     -4.13389        -0.305099      0.033536     -0.397915
O	      4.04047      2.01856      0.00477         0.084197     -0.264523      0.033456
O	      3.98675     -0.01373     -1.97181         0.168224     -0.308884     -0.109408
O	      2.06673      4.05631     -0.11149        -0.404929      0.123598      0.571388
O	      4.03333      2.03074     -4.11215         0.091458     -0.304472     -0.202416
O	      2.02317      6.07215     -2.07385        -0.224764      0.449335      0.045825
