# total energy = -120.58510089 eV
 
CRYSTAL
PRIMVEC
2.047165 4.155760 2.094545 
4.158698 -2.096094 -2.121685 
0.003152 4.163755 -4.207052 
PRIMCOORD
16 1
Li	      2.05473      4.20352      1.98661        -0.071250      0.009028     -0.038296
Li	      1.97513      2.15527     -0.05526         0.019119      0.045034     -0.041735
Li	      4.26345      2.01028     -2.09159         0.010336      0.055831      0.003164
Li	      0.02495      2.05841     -2.01138         0.044910     -0.010470      0.001728
Ti	      2.10002      0.01551     -2.11562        -0.148312     -0.082011     -0.146676
Ti	      2.05593      4.16945     -2.14717         0.028307     -0.148008      0.063168
Ti	      2.10217      2.10752     -4.22966        -0.004312     -0.183505      0.039181
Ti	      4.18521      4.18074     -4.22747         0.025699     -0.016123      0.135509
O	      2.07439      2.08557     -2.15239         0.079865      0.130634     -0.056636
O	      4.19035      4.12680     -2.11496        -0.221150      0.148187      0.005812
O	      2.05091      4.22317     -4.26010         0.164510     -0.023105      0.162647
O	      4.16383      2.08019      0.00492        -0.057872      0.052493     -0.028074
O	      4.10848     -0.01416     -2.03201        -0.210407      0.171799      0.156935
O	      2.12984      4.18017     -0.11489         0.283868     -0.083654     -0.331620
O	      4.15648      2.09274     -4.23770        -0.058627      0.226880      0.098474
O	      2.08494      6.25755     -2.13718         0.115315     -0.293010     -0.023582
