# total energy = -92.96061048 eV
 
CRYSTAL
PRIMVEC
2.041685 4.132615 2.041499 
2.055713 -4.146698 2.055402 
4.132494 -0.000069 -4.132028 
PRIMCOORD
16 1
Li	      4.18513     -4.14515     -0.07502         0.014429     -0.001233     -0.012990
Li	      6.15351     -2.07828     -0.00146         0.000994     -0.002418      0.000201
Li	      6.12475     -0.00433     -2.02801        -0.008399     -0.002161      0.006277
Li	      4.11239     -2.07274     -2.05661        -0.000793      0.002144     -0.000318
Mn	      8.16880     -0.01311      0.02490        -0.022799     -0.000513      0.026646
Mn	      4.11741     -2.07925      2.03407         0.013785     -0.001806     -0.011972
Ni	      2.07493     -2.07211     -0.02044        -0.018489      0.000220      0.018217
Ni	      4.19011     -0.00594     -0.09408         0.016910      0.000217     -0.016159
O	      6.27635      0.03715     -0.03575         0.123100     -0.001173      0.000899
O	      3.97934      1.97406      0.01118        -0.073194      0.136714     -0.120165
O	      4.13197     -0.04932     -2.17968         0.000053      0.002687     -0.126173
O	      4.09589     -0.11719      2.11309        -0.003558     -0.070460      0.070621
O	      4.08477     -1.98599      0.11638         0.119886     -0.135851      0.073000
O	      2.07633      2.19448      1.93584        -0.120620      0.035770     -0.031640
O	      1.98271      0.10515      0.00020        -0.071004      0.071946      0.003621
O	      2.16035     -2.20677      2.01980         0.029699     -0.034082      0.119936
