# total energy = -120.47574594 eV
 
CRYSTAL
PRIMVEC
2.057350 4.176435 2.104966 
4.179388 -2.106522 -2.132240 
0.003168 4.184470 -4.227982 
PRIMCOORD
16 1
Li	      2.09601      4.23496      1.99581        -0.151321      0.018337     -0.060963
Li	      1.99483      2.17677     -0.05581         0.047690      0.094246     -0.075333
Li	      4.30598      2.03033     -2.11246         0.017008      0.102610      0.007365
Li	      0.02520      2.07894     -2.03144         0.095145     -0.020073     -0.010787
Ti	      2.13120      0.03644     -2.12624        -0.292536     -0.143909     -0.282793
Ti	      2.07644      4.21104     -2.16859         0.105027     -0.190010      0.149846
Ti	      2.13337      2.14932     -4.26137         0.004887     -0.354715      0.073595
Ti	      4.22696      4.22244     -4.26964        -0.004782     -0.125941      0.237801
O	      2.09508      2.10638     -2.17386         0.151496      0.195953     -0.138400
O	      4.23214      4.16796     -2.13605        -0.410003      0.283659      0.018607
O	      2.07137      4.26530     -4.30259         0.302672     -0.045551      0.301628
O	      4.20537      2.10094      0.00497        -0.109733      0.131938     -0.028292
O	      4.14946     -0.01430     -2.05228        -0.320859      0.325687      0.244899
O	      2.15108      4.22187     -0.11604         0.464402     -0.143793     -0.576526
O	      4.19794      2.11362     -4.27997        -0.091913      0.380065      0.191987
O	      2.10574      6.31997     -2.15849         0.192820     -0.508502     -0.052634
