# total energy = -120.07846098 eV
 
CRYSTAL
PRIMVEC
2.077720 4.217786 2.125807 
4.220768 -2.127379 -2.153351 
0.003199 4.225901 -4.269844 
PRIMCOORD
16 1
Li	      0.10180      0.08039     -0.11160        -0.301517      0.033871     -0.108842
Li	      2.03453      2.22009     -0.05692         0.103259      0.186076     -0.133240
Li	      4.39167      2.07074     -2.15449         0.027031      0.190738      0.004222
Li	      0.02570      2.12032     -2.07186         0.187308     -0.035600     -0.029890
Ti	      2.19418      0.07893     -2.14751        -0.543005     -0.218398     -0.545461
Ti	      2.11776      4.29484     -2.21175         0.196667     -0.264171      0.310056
Ti	      2.19639      2.23385     -4.32513         0.050855     -0.663561      0.122144
Ti	      4.31108      4.30646     -4.35461        -0.020564     -0.305886      0.402385
O	      2.13677      2.14829     -2.21712         0.284071      0.271289     -0.298574
O	      4.31636      4.25090     -2.17856        -0.745520      0.497461      0.036430
O	      2.11259      4.35017     -4.38822         0.551882     -0.091973      0.544192
O	      4.28905      2.14275      0.00507        -0.207404      0.262587     -0.007103
O	      4.23203     -0.01459     -2.09312        -0.536436      0.625063      0.438983
O	      2.19389      4.30588     -0.11835         0.766936     -0.252115     -1.008544
O	      4.28148      2.15568     -4.36514        -0.121664      0.657614      0.382858
O	      2.14764      6.44574     -2.20145         0.308101     -0.892994     -0.109614
