# total energy = -119.79926397 eV
 
CRYSTAL
PRIMVEC
2.087905 4.238462 2.136227 
4.241458 -2.137807 -2.163907 
0.003215 4.246616 -4.290774 
PRIMCOORD
16 1
Li	      0.13382      0.09147     -0.11283        -0.375430      0.045335     -0.129946
Li	      2.05453      2.24191     -0.05748         0.130306      0.223866     -0.161738
Li	      4.43483      2.09109     -2.17567         0.035734      0.234663      0.002607
Li	      0.02595      2.14116     -2.09222         0.230917     -0.044329     -0.039230
Ti	      2.22598      0.10048     -2.15814        -0.652748     -0.234583     -0.677012
Ti	      2.13858      4.33705     -2.23349         0.213392     -0.303863      0.383204
Ti	      2.22822      2.27659     -4.35716         0.084293     -0.806512      0.137443
Ti	      4.35344      4.34879     -4.39740        -0.005613     -0.374105      0.471405
O	      2.15777      2.16941     -2.23891         0.353172      0.289493     -0.379039
O	      4.35879      4.29268     -2.19997        -0.899195      0.587500      0.043731
O	      2.13335      4.39293     -4.43135         0.666552     -0.112660      0.657998
O	      4.33121      2.16381      0.00512        -0.252957      0.308364      0.011353
O	      4.27363     -0.01472     -2.11369        -0.645793      0.770923      0.543613
O	      2.21545      4.34820     -0.11951         0.888135     -0.302140     -1.192131
O	      4.32356      2.17687     -4.40805        -0.118424      0.784655      0.472107
O	      2.16875      6.50909     -2.22308         0.347658     -1.066608     -0.144366
