# total energy = -119.47167182 eV
 
CRYSTAL
PRIMVEC
2.098090 4.259137 2.146648 
4.262148 -2.148236 -2.174463 
0.003230 4.267331 -4.311705 
PRIMCOORD
16 1
Li	      0.16616      0.10267     -0.11407        -0.454265      0.055201     -0.152811
Li	      2.07461      2.26384     -0.05804         0.152875      0.260979     -0.183255
Li	      4.47820      2.11154     -2.19695         0.047525      0.275535      0.002752
Li	      0.02620      2.16209     -2.11269         0.270607     -0.055279     -0.048746
Ti	      2.25798      0.12224     -2.16878        -0.752340     -0.239186     -0.804822
Ti	      2.15949      4.37947     -2.25533         0.211547     -0.344132      0.449176
Ti	      2.26025      2.31962     -4.38930         0.124910     -0.941419      0.147199
Ti	      4.39602      4.39132     -4.44041         0.024268     -0.426018      0.535034
O	      2.17888      2.19063     -2.26081         0.423232      0.297609     -0.452939
O	      4.40141      4.33466     -2.22149        -1.047541      0.664249      0.052948
O	      2.15421      4.43589     -4.47468         0.774592     -0.137824      0.762212
O	      4.37357      2.18496      0.00517        -0.296365      0.349547      0.032802
O	      4.31542     -0.01487     -2.13436        -0.741739      0.913644      0.644470
O	      2.23712      4.39072     -0.12068         1.000616     -0.348305     -1.364186
O	      4.36584      2.19816     -4.45116        -0.111882      0.898699      0.560455
O	      2.18996      6.57275     -2.24483         0.373960     -1.223301     -0.180290
