# total energy = -119.10027288 eV
 
CRYSTAL
PRIMVEC
2.108275 4.279812 2.157069 
4.282839 -2.158664 -2.185018 
0.003246 4.288046 -4.332635 
PRIMCOORD
16 1
Li	      0.19880      0.11396     -0.11531        -0.529244      0.064468     -0.177819
Li	      2.09481      2.28587     -0.05861         0.174463      0.293933     -0.206198
Li	      4.52178      2.13209     -2.21833         0.062429      0.319643     -0.001026
Li	      0.02646      2.18314     -2.13325         0.308540     -0.065734     -0.058459
Ti	      2.29019      0.14421     -2.17941        -0.840881     -0.235656     -0.923936
Ti	      2.18051      4.42209     -2.27728         0.200869     -0.385630      0.507881
Ti	      2.29248      2.36297     -4.42155         0.168303     -1.065854      0.153271
Ti	      4.43880      4.43406     -4.48363         0.061526     -0.462756      0.592795
O	      2.20008      2.21195     -2.28281         0.490731      0.288997     -0.527653
O	      4.44425      4.37685     -2.24311        -1.186994      0.728789      0.061062
O	      2.17518      4.47906     -4.51823         0.883520     -0.159035      0.847922
O	      4.41613      2.20623      0.00522        -0.349731      0.377281      0.061599
O	      4.35742     -0.01502     -2.15514        -0.838664      1.057992      0.750269
O	      2.25889      4.43345     -0.12186         1.092048     -0.391302     -1.514093
O	      4.40833      2.21955     -4.49448        -0.088749      1.009611      0.646121
O	      2.21127      6.63671     -2.26667         0.391835     -1.374748     -0.211736
