# total energy = -118.24142978 eV
 
CRYSTAL
PRIMVEC
2.128645 4.321163 2.177910 
4.324219 -2.179521 -2.206130 
0.003277 4.329477 -4.374497 
PRIMCOORD
16 1
Li	      0.26500      0.13687     -0.11783        -0.680889      0.088901     -0.219324
Li	      2.13548      2.33025     -0.05974         0.215473      0.358802     -0.250777
Li	      4.60958      2.17349     -2.26140         0.091981      0.398383     -0.011129
Li	      0.02697      2.22553     -2.17467         0.382892     -0.086804     -0.074471
Ti	      2.35523      0.18876     -2.20069        -0.995813     -0.188113     -1.155037
Ti	      2.22285      4.50795     -2.32149         0.194181     -0.443226      0.629644
Ti	      2.35755      2.45061     -4.48636         0.247116     -1.280986      0.159344
Ti	      4.52499      4.52016     -4.57068         0.128636     -0.499401      0.676102
O	      2.24280      2.25489     -2.32714         0.630712      0.220067     -0.697809
O	      4.53054      4.46183     -2.28666        -1.421747      0.831134      0.082009
O	      2.21742      4.56603     -4.60596         1.065882     -0.214688      1.005625
O	      4.50188      2.24907      0.00532        -0.449796      0.390746      0.133014
O	      4.44203     -0.01531     -2.19698        -1.005709      1.332905      0.949072
O	      2.30275      4.51954     -0.12422         1.225025     -0.472293     -1.756610
O	      4.49393      2.26264     -4.58175        -0.015734      1.221417      0.813717
O	      2.25421      6.76558     -2.31069         0.387790     -1.656846     -0.283370
