# total energy = -117.75903199 eV
 
CRYSTAL
PRIMVEC
2.138830 4.341839 2.188331 
4.344909 -2.189949 -2.216685 
0.003293 4.350192 -4.395427 
PRIMCOORD
16 1
Li	      0.29857      0.14848     -0.11909        -0.758054      0.105193     -0.243491
Li	      2.15597      2.35260     -0.06032         0.233775      0.387915     -0.268426
Li	      4.65380      2.19433     -2.28309         0.107531      0.436271     -0.019416
Li	      0.02723      2.24688     -2.19553         0.415958     -0.099210     -0.077634
Ti	      2.38805      0.21134     -2.21133        -1.050977     -0.131996     -1.295438
Ti	      2.24417      4.55119     -2.34376         0.202472     -0.456489      0.701523
Ti	      2.39040      2.49489     -4.51892         0.276197     -1.425112      0.151542
Ti	      4.56840      4.56351     -4.61453         0.158509     -0.503824      0.719618
O	      2.26432      2.27652     -2.34946         0.696695      0.189057     -0.773112
O	      4.57400      4.50463     -2.30860        -1.526932      0.865235      0.094048
O	      2.23868      4.60983     -4.65014         1.148455     -0.257133      1.079661
O	      4.54506      2.27064      0.00537        -0.500985      0.399234      0.183006
O	      4.48464     -0.01546     -2.21806        -1.072757      1.464527      1.049582
O	      2.32484      4.56289     -0.12541         1.261601     -0.512055     -1.868421
O	      4.53703      2.28435     -4.62569         0.037865      1.319074      0.890443
O	      2.27583      6.83048     -2.33285         0.370647     -1.780688     -0.323484
