# total energy = -115.64417700 eV
 
CRYSTAL
PRIMVEC
3.912199 -0.000994 -0.000898 
1.956472 3.884690 -5.935249 
-1.957550 3.924839 2.004704 
PRIMCOORD
16 1
Li	      3.71678      0.08302     -0.05399         0.750574     -0.437421      0.286250
Li	      1.85689      1.86447     -0.02533         0.197760     -0.526366      0.566456
Li	      3.71651      1.81545     -1.79718         0.771644     -0.661367     -0.185225
Li	     -0.00148      5.56643     -1.81114        -0.842390      0.945101      0.169459
Ti	     -0.00170      3.74950      0.05708        -2.104062      1.535606      2.117930
Ti	      1.85681      3.68947     -1.89020        -2.202711     -0.871443     -0.489419
Ti	      3.71723      3.65434     -3.79946         2.512745     -1.269224     -2.815969
Ti	      1.85616      5.55554     -3.74186        -1.382338      3.293291     -2.851582
O	      3.71548      3.69594     -1.87051         2.832927      0.101638      0.179267
O	     -0.00182      1.95602      0.08238        -1.188167     -2.305159      0.808350
O	      1.85743      5.51707     -1.86950        -0.264510      3.241641      2.486044
O	      1.85630      3.74007      0.01527         1.321614      0.671548      2.862852
O	      1.85894      3.64151     -3.81111        -2.070397     -2.205227     -3.294673
O	      3.71488      5.53843     -3.71537         2.047380      3.087795     -0.483451
O	      1.85755      1.85593     -1.87928        -0.222649     -2.555742     -0.717978
O	      1.85779      0.01583     -0.01572        -0.157419     -2.044674      1.361689
