# total energy = -116.69079192 eV
 
CRYSTAL
PRIMVEC
3.932789 -0.000999 -0.000903 
1.966769 3.905136 -5.966487 
-1.967853 3.945496 2.015255 
PRIMCOORD
16 1
Li	      3.75601      0.08390     -0.05456         0.648274     -0.366979      0.254379
Li	      1.87649      1.88415     -0.02559         0.153437     -0.470015      0.487618
Li	      3.75574      1.83461     -1.81615         0.668000     -0.572647     -0.148526
Li	     -0.00150      5.62518     -1.83026        -0.729105      0.824326      0.138516
Ti	     -0.00172      3.78907      0.05768        -1.786167      1.253139      1.845185
Ti	      1.87641      3.72841     -1.91015        -1.834656     -0.743765     -0.427278
Ti	      3.75647      3.69291     -3.83955         2.112045     -1.006014     -2.445450
Ti	      1.87575      5.61417     -3.78135        -1.106165      2.859072     -2.421879
O	      3.75470      3.73495     -1.89026         2.405798      0.095235      0.131010
O	     -0.00184      1.97666      0.08325        -1.042245     -1.947681      0.699921
O	      1.87703      5.57529     -1.88923        -0.249412      2.724727      2.114148
O	      1.87590      3.77954      0.01542         1.063318      0.572629      2.422368
O	      1.87856      3.67994     -3.85133        -1.726031     -1.886839     -2.812886
O	      3.75409      5.59689     -3.75458         1.715804      2.656971     -0.420389
O	      1.87715      1.87552     -1.89911        -0.171120     -2.141354     -0.617135
O	      1.87740      0.01600     -0.01589        -0.121774     -1.850805      1.200396
