# total energy = -117.58688018 eV
 
CRYSTAL
PRIMVEC
3.953380 -0.001005 -0.000907 
1.977066 3.925582 -5.997725 
-1.978155 3.966153 2.025806 
PRIMCOORD
16 1
Li	      3.79545      0.08478     -0.05513         0.551734     -0.305933      0.225963
Li	      1.89619      1.90393     -0.02586         0.116839     -0.415921      0.414077
Li	      3.79517      1.85387     -1.83521         0.570781     -0.490744     -0.115221
Li	     -0.00151      5.68424     -1.84948        -0.627068      0.707670      0.104498
Ti	     -0.00174      3.82885      0.05828        -1.496095      1.002527      1.595695
Ti	      1.89610      3.76755     -1.93020        -1.504500     -0.623246     -0.370940
Ti	      3.79590      3.73168     -3.87987         1.753787     -0.777791     -2.106314
Ti	      1.89545      5.67311     -3.82105        -0.868217      2.455720     -2.030444
O	      3.79412      3.77416     -1.91010         2.010635      0.091857      0.098781
O	     -0.00186      1.99742      0.08413        -0.904350     -1.621419      0.598170
O	      1.89673      5.63383     -1.90907        -0.230705      2.257724      1.775676
O	      1.89559      3.81922      0.01559         0.841300      0.483024      2.022843
O	      1.89828      3.71858     -3.89176        -1.418925     -1.593577     -2.368157
O	      3.79351      5.65564     -3.79400         1.425986      2.258170     -0.362181
O	      1.89686      1.89521     -1.91905        -0.127164     -1.766825     -0.526192
O	      1.89712      0.01617     -0.01606        -0.094035     -1.661235      1.043747
