# total energy = -90.26032006 eV
 
CRYSTAL
PRIMVEC
0.000076 2.088781 2.088918 
8.383983 0.000067 0.000190 
-0.000024 4.195563 -4.195905 
PRIMCOORD
16 1
Li	      2.27942      2.09398     -0.00115        -0.051513     -0.000229     -0.001171
Li	      4.19128      2.03778     -2.03533        -0.000820      0.053385     -0.055191
Li	      4.19215      2.14785      2.02996        -0.000646     -0.054249      0.054951
Li	      6.10328      2.09148     -0.00440         0.050634      0.001345      0.002950
Mn	      8.38302      0.01449     -0.01226         0.001497      0.031247     -0.032980
Mn	      8.38318      2.08300     -2.08114        -0.000665     -0.033803      0.031942
Ni	      6.17679      4.19019     -2.10085        -0.021729      0.000178      0.001079
Ni	      2.20561      4.18999     -2.10132         0.021611      0.001102      0.000976
O	      6.47157      2.15236     -2.15162         0.003719     -0.100498      0.100520
O	      8.38311      4.18604     -2.10505         0.001014      0.008802      0.007691
O	      6.47146      4.13958     -4.13860         0.003178      0.101238     -0.100609
O	      8.38312      2.09728      0.00194         0.000066     -0.008892     -0.009162
O	      1.91072      2.15216     -2.15212        -0.003026     -0.099630      0.100989
O	      4.19120      4.19073     -2.10060         0.001278     -0.000126     -0.001301
O	      1.91066      4.13938     -4.13907        -0.005625      0.100007     -0.099412
O	      4.19134      2.09283     -0.00275         0.001027      0.000125     -0.001271
