# total energy = -118.34303565 eV
 
CRYSTAL
PRIMVEC
3.973970 -0.001010 -0.000912 
1.987363 3.946027 -6.028964 
-1.988458 3.986810 2.036357 
PRIMCOORD
16 1
Li	      3.83508      0.08566     -0.05571         0.462023     -0.251566      0.193993
Li	      1.91599      1.92381     -0.02613         0.086872     -0.360414      0.349146
Li	      3.83481      1.87323     -1.85438         0.484331     -0.411141     -0.087511
Li	     -0.00153      5.74360     -1.86879        -0.531792      0.604710      0.078820
Ti	     -0.00175      3.86884      0.05889        -1.230327      0.785670      1.364041
Ti	      1.91591      3.80690     -1.95036        -1.209569     -0.510151     -0.315270
Ti	      3.83555      3.77065     -3.92039         1.435091     -0.580580     -1.794790
Ti	      1.91524      5.73236     -3.86096        -0.664035      2.080224     -1.677973
O	      3.83374      3.81358     -1.93006         1.649145      0.080023      0.065331
O	     -0.00188      2.01827      0.08500        -0.771520     -1.326362      0.503121
O	      1.91654      5.69266     -1.92900        -0.214152      1.837542      1.469818
O	      1.91539      3.85911      0.01575         0.646505      0.396559      1.661515
O	      1.91811      3.75742     -3.93241        -1.148503     -1.332829     -1.956569
O	      3.83312      5.71471     -3.83362         1.166193      1.891458     -0.306700
O	      1.91667      1.91500     -1.93909        -0.090006     -1.435078     -0.444233
O	      1.91692      0.01633     -0.01622        -0.070257     -1.468066      0.897261
