# total energy = -119.47616400 eV
 
CRYSTAL
PRIMVEC
4.015152 -0.001020 -0.000921 
2.007958 3.986919 -6.091440 
-2.009064 4.028124 2.057459 
PRIMCOORD
16 1
Li	      3.91498      0.08745     -0.05687         0.300472     -0.154329      0.143280
Li	      1.95591      1.96389     -0.02667         0.039055     -0.261276      0.236962
Li	      3.91470      1.91226     -1.89301         0.319493     -0.271201     -0.041503
Li	     -0.00156      5.86326     -1.90772        -0.352592      0.413142      0.032270
Ti	     -0.00179      3.94944      0.06012        -0.776193      0.434082      0.961103
Ti	      1.95582      3.88621     -1.99099        -0.720602     -0.308035     -0.223542
Ti	      3.91546      3.84920     -4.00206         0.892635     -0.276930     -1.239818
Ti	      1.95514      5.85178     -3.94139        -0.350472      1.393272     -1.066511
O	      3.91361      3.89303     -1.97026         1.031693      0.058603      0.026529
O	     -0.00192      2.06033      0.08677        -0.527082     -0.811880      0.331094
O	      1.95647      5.81125     -1.96919        -0.162856      1.123801      0.932304
O	      1.95529      3.93950      0.01607         0.342263      0.244269      1.035464
O	      1.95807      3.83569     -4.01433        -0.693648     -0.873681     -1.238618
O	      3.91298      5.83376     -3.91348         0.728455      1.243286     -0.206432
O	      1.95660      1.95490     -1.97949        -0.035119     -0.882397     -0.297415
O	      1.95686      0.01667     -0.01657        -0.035500     -1.070725      0.614835
