# total energy = -120.16670337 eV
 
CRYSTAL
PRIMVEC
4.056333 -0.001031 -0.000931 
2.028552 4.027810 -6.153916 
-2.029670 4.069439 2.078561 
PRIMCOORD
16 1
Li	      3.99570      0.08925     -0.05804         0.167503     -0.078431      0.093721
Li	      1.99623      2.00438     -0.02723         0.012093     -0.156651      0.143390
Li	      3.99541      1.95168     -1.93204         0.177315     -0.148555     -0.002848
Li	     -0.00159      5.98415     -1.94706        -0.198002      0.234942      0.003350
Ti	     -0.00183      4.03087      0.06136        -0.408098      0.182500      0.603259
Ti	      1.99615      3.96633     -2.03204        -0.355280     -0.147158     -0.137052
Ti	      3.99618      3.92857     -4.08458         0.460209     -0.084161     -0.747589
Ti	      1.99545      5.97243     -4.02265        -0.143366      0.778153     -0.581439
O	      3.99430      3.97329     -2.01089         0.541018      0.043078      0.007767
O	     -0.00195      2.10280      0.08856        -0.300605     -0.398492      0.189073
O	      1.99681      5.93107     -2.00979        -0.104134      0.564684      0.490380
O	      1.99560      4.02073      0.01641         0.140250      0.123765      0.536859
O	      1.99844      3.91478     -4.09710        -0.350778     -0.494066     -0.651194
O	      3.99365      5.95404     -3.99417         0.380825      0.694604     -0.118257
O	      1.99694      1.99521     -2.02030        -0.006618     -0.451152     -0.170397
O	      1.99721      0.01702     -0.01690        -0.012331     -0.663060      0.340978
