# total energy = -120.36632120 eV
 
CRYSTAL
PRIMVEC
4.076923 -0.001036 -0.000936 
2.038850 4.048256 -6.185154 
-2.039973 4.090096 2.089112 
PRIMCOORD
16 1
Li	      4.03637      0.09016     -0.05863         0.103775     -0.042646      0.070136
Li	      2.01655      2.02478     -0.02750         0.002956     -0.103176      0.100179
Li	      4.03608      1.97155     -1.95171         0.113362     -0.092857      0.009656
Li	     -0.00161      6.04506     -1.96688        -0.128744      0.158050     -0.003505
Ti	     -0.00185      4.07190      0.06198        -0.254866      0.089055      0.445034
Ti	      2.01646      4.00670     -2.05272        -0.210931     -0.079870     -0.100003
Ti	      4.03685      3.96855     -4.12615         0.282758     -0.025755     -0.523877
Ti	      2.01576      6.03322     -4.06360        -0.071546      0.491891     -0.375864
O	      4.03496      4.01373     -2.03135         0.335486      0.037356      0.003750
O	     -0.00198      2.12420      0.08947        -0.194040     -0.221293      0.127399
O	      2.01713      5.99144     -2.03024        -0.072497      0.335856      0.298370
O	      2.01591      4.06165      0.01658         0.075578      0.074181      0.323409
O	      2.01878      3.95463     -4.13880        -0.215739     -0.331723     -0.396442
O	      4.03430      6.01464     -4.03483         0.237770      0.444076     -0.080222
O	      2.01727      2.01551     -2.04087         0.001943     -0.282012     -0.108464
O	      2.01753      0.01719     -0.01708        -0.005266     -0.451133      0.210443
