# total energy = -120.47103371 eV
 
CRYSTAL
PRIMVEC
4.138695 -0.001052 -0.000950 
2.069741 4.109593 -6.278869 
-2.070881 4.152067 2.120765 
PRIMCOORD
16 1
Li	      0.02091      0.09396     -0.05947        -0.051706      0.046634     -0.005442
Li	      2.07812      2.08661     -0.02834         0.001727      0.040543     -0.010831
Li	      4.15931      2.03174     -2.01130        -0.057513      0.055040      0.025444
Li	     -0.00165      6.22962     -2.02693         0.060627     -0.056002     -0.012586
Ti	     -0.00190      4.19622      0.06387         0.104382     -0.090228      0.017878
Ti	      2.07803      4.12904     -2.11540         0.079760      0.069323      0.009476
Ti	      4.16011      4.08972     -4.25213        -0.126773     -0.005231      0.095754
Ti	      2.07731      6.21743     -4.18768         0.030651     -0.296437      0.110874
O	      0.01946      4.13734     -2.09243        -0.126308      0.023628      0.000335
O	     -0.00203      2.18906      0.09219         0.093080      0.205561     -0.021835
O	      2.07872      6.17438     -2.09224         0.032696     -0.162728     -0.156505
O	      2.07746      4.18566      0.01708        -0.010143     -0.049118     -0.180061
O	      2.08042      4.07537     -4.26517         0.055926      0.077443      0.227316
O	      4.15748      6.19829     -4.15802        -0.090637     -0.195445      0.004810
O	      2.07886      2.07705     -2.10318        -0.002471      0.099643      0.053961
O	      2.07913      0.01772     -0.01760         0.006704      0.237375     -0.158587
