# total energy = -120.36286999 eV
 
CRYSTAL
PRIMVEC
4.159285 -0.001057 -0.000955 
2.080038 4.130039 -6.310107 
-2.081184 4.172724 2.131316 
PRIMCOORD
16 1
Li	      0.04181      0.09490     -0.06007        -0.095607      0.070934     -0.029595
Li	      2.09885      2.10742     -0.02863         0.006587      0.090332     -0.045495
Li	      4.20080      2.05201     -2.03136        -0.104663      0.098261      0.027015
Li	     -0.00168      6.29177     -2.04714         0.114088     -0.115960     -0.013980
Ti	     -0.00192      4.23808      0.06451         0.193675     -0.121781     -0.110057
Ti	      2.09876      4.17022     -2.13650         0.133204      0.105033      0.042515
Ti	      4.20161      4.13052     -4.29454        -0.224994     -0.038847      0.287477
Ti	      2.09803      6.27945     -4.22945         0.034256     -0.549102      0.237114
O	      0.04035      4.17860     -2.11330        -0.236009      0.019265     -0.002021
O	     -0.00206      2.21090      0.09312         0.185121      0.320414     -0.063585
O	      2.09946      6.23596     -2.11311         0.067862     -0.274534     -0.274355
O	      2.09819      4.22742      0.01725        -0.010747     -0.078944     -0.306886
O	      2.10117      4.11602     -4.30771         0.111722      0.181955      0.394420
O	      4.19895      6.26012     -4.19950        -0.168871     -0.381241      0.028797
O	      2.09960      2.09777     -2.12416        -0.013080      0.187829      0.102901
O	      2.09987      0.01790     -0.01778         0.007455      0.486387     -0.274263
