# total energy = -120.19247986 eV
 
CRYSTAL
PRIMVEC
4.179876 -0.001062 -0.000959 
2.090336 4.150485 -6.341345 
-2.091487 4.193381 2.141867 
PRIMCOORD
16 1
Li	      0.06292      0.09583     -0.06067        -0.134962      0.095239     -0.056657
Li	      2.11968      2.12834     -0.02891         0.014886      0.138327     -0.076888
Li	      4.24249      2.07238     -2.05152        -0.150476      0.139117      0.030634
Li	     -0.00169      6.35422     -2.06747         0.163737     -0.175463     -0.011798
Ti	     -0.00194      4.28014      0.06515         0.269747     -0.140671     -0.233490
Ti	      2.11959      4.21162     -2.15771         0.168538      0.135207      0.074750
Ti	      4.24331      4.17152     -4.33717        -0.306486     -0.084674      0.478714
Ti	      2.11886      6.34178     -4.27143         0.025521     -0.805801      0.346988
O	      0.06144      4.22007     -2.13428        -0.321221      0.012090     -0.002687
O	     -0.00208      2.23284      0.09404         0.271505      0.424992     -0.106214
O	      2.12030      6.29786     -2.13408         0.105472     -0.361433     -0.382647
O	      2.11901      4.26938      0.01742         0.003717     -0.102229     -0.415594
O	      2.12203      4.15687     -4.35047         0.146807      0.275728      0.542284
O	      4.24063      6.32225     -4.24118        -0.237605     -0.551965      0.052345
O	      2.12043      2.11860     -2.14524        -0.026303      0.256685      0.148959
O	      2.12072      0.01807     -0.01795         0.007122      0.744852     -0.388699
