# total energy = -119.96493893 eV
 
CRYSTAL
PRIMVEC
4.200466 -0.001067 -0.000964 
2.100633 4.170931 -6.372583 
-2.101790 4.214038 2.152419 
PRIMCOORD
16 1
Li	      0.08424      0.09678     -0.06128        -0.170580      0.115931     -0.082653
Li	      2.14062      2.14936     -0.02919         0.025998      0.185971     -0.106877
Li	      4.28439      2.09284     -2.07178        -0.191508      0.180423      0.026482
Li	     -0.00170      6.41697     -2.08789         0.210998     -0.225691     -0.005623
Ti	     -0.00196      4.32242      0.06580         0.332747     -0.148761     -0.353423
Ti	      2.14052      4.25321     -2.17902         0.186003      0.154643      0.106744
Ti	      4.28522      4.21272     -4.38000        -0.372372     -0.140624      0.671947
Ti	      2.13978      6.40441     -4.31361         0.003846     -1.069297      0.439389
O	      0.08274      4.26174     -2.15537        -0.385383      0.012488     -0.006367
O	     -0.00210      2.25490      0.09497         0.352376      0.524443     -0.145112
O	      2.14123      6.36006     -2.15516         0.144881     -0.429875     -0.479992
O	      2.13994      4.31154      0.01760         0.026332     -0.121097     -0.513247
O	      2.14299      4.19793     -4.39344         0.170415      0.353581      0.682270
O	      4.28251      6.38469     -4.28306        -0.298722     -0.719059      0.075902
O	      2.14138      2.13952     -2.16643        -0.041564      0.315349      0.192622
O	      2.14166      0.01825     -0.01813         0.006532      1.011575     -0.502061
