# total energy = -119.68548973 eV
 
CRYSTAL
PRIMVEC
4.221057 -0.001073 -0.000969 
2.110930 4.191376 -6.403821 
-2.112093 4.234695 2.162970 
PRIMCOORD
16 1
Li	      0.10576      0.09772     -0.06189        -0.204535      0.134464     -0.109437
Li	      2.16166      2.17048     -0.02948         0.038510      0.236916     -0.132179
Li	      4.32650      2.11341     -2.09215        -0.231853      0.212645      0.023032
Li	     -0.00172      6.48004     -2.10841         0.256494     -0.279131      0.000401
Ti	     -0.00198      4.36490      0.06644         0.382880     -0.146420     -0.472421
Ti	      2.16156      4.29501     -2.20043         0.186942      0.162118      0.141397
Ti	      4.32733      4.25412     -4.42305        -0.423483     -0.200308      0.871513
Ti	      2.16081      6.46735     -4.35601        -0.029878     -1.339031      0.506512
O	      0.10424      4.30363     -2.17655        -0.434132      0.008161     -0.010239
O	     -0.00212      2.27705      0.09591         0.429409      0.610980     -0.178074
O	      2.16228      6.42256     -2.17634         0.183811     -0.475361     -0.568791
O	      2.16097      4.35392      0.01777         0.061476     -0.132931     -0.598389
O	      2.16405      4.23919     -4.43662         0.187281      0.427204      0.804074
O	      4.32460      6.44744     -4.32516        -0.347902     -0.864865      0.091673
O	      2.16242      2.16054     -2.18772        -0.059391      0.360170      0.235892
O	      2.16271      0.01843     -0.01831         0.004371      1.285386     -0.604963
