# total energy = -119.35894160 eV
 
CRYSTAL
PRIMVEC
4.241647 -0.001078 -0.000973 
2.121227 4.211822 -6.435060 
-2.122396 4.255352 2.173521 
PRIMCOORD
16 1
Li	      0.12748      0.09867     -0.06249        -0.235198      0.158709     -0.137393
Li	      2.18280      2.19171     -0.02977         0.051972      0.286052     -0.162477
Li	      4.36881      2.13408     -2.11260        -0.269442      0.246558      0.016101
Li	     -0.00174      6.54341     -2.12902         0.298194     -0.322802      0.012933
Ti	     -0.00200      4.40759      0.06709         0.424562     -0.133027     -0.581526
Ti	      2.18270      4.33702     -2.22195         0.172842      0.150687      0.172049
Ti	      4.36965      4.29572     -4.46631        -0.459643     -0.262364      1.080440
Ti	      2.18194      6.53060     -4.39860        -0.069759     -1.613958      0.543896
O	      0.12595      4.34571     -2.19784        -0.464490      0.010644     -0.021777
O	     -0.00214      2.29933      0.09684         0.504710      0.682497     -0.206478
O	      2.18342      6.48538     -2.19762         0.224952     -0.500808     -0.648008
O	      2.18211      4.39650      0.01795         0.103895     -0.143729     -0.675551
O	      2.18521      4.28064     -4.48001         0.187013      0.485890      0.918503
O	      4.36689      6.51050     -4.36746        -0.393431     -1.011888      0.109779
O	      2.18357      2.18167     -2.20912        -0.078135      0.402536      0.277843
O	      2.18386      0.01861     -0.01849         0.001959      1.565004     -0.698335
