# total energy = -118.98935163 eV
 
CRYSTAL
PRIMVEC
4.262238 -0.001083 -0.000978 
2.131524 4.232268 -6.466298 
-2.132699 4.276009 2.184072 
PRIMCOORD
16 1
Li	      0.14941      0.09962     -0.06311        -0.266458      0.185625     -0.162409
Li	      2.20404      2.21303     -0.03006         0.068686      0.335494     -0.197761
Li	      4.41133      2.15486     -2.13317        -0.302057      0.278772      0.006631
Li	     -0.00176      6.60709     -2.14974         0.335844     -0.362913      0.029971
Ti	     -0.00202      4.45048      0.06774         0.456526     -0.107409     -0.646383
Ti	      2.20394      4.37923     -2.24358         0.137256      0.143095      0.187157
Ti	      4.41218      4.33753     -4.50977        -0.481490     -0.355294      1.259703
Ti	      2.20318      6.59416     -4.44142        -0.117297     -1.877649      0.568884
O	      0.14787      4.38800     -2.21924        -0.474159      0.004654     -0.035627
O	     -0.00216      2.32170      0.09778         0.579955      0.734598     -0.234290
O	      2.20467      6.54850     -2.21901         0.267750     -0.470289     -0.723366
O	      2.20334      4.43929      0.01812         0.159267     -0.155669     -0.731287
O	      2.20647      4.32230     -4.52360         0.167850      0.538729      1.010517
O	      4.40940      6.57386     -4.40997        -0.433004     -1.155579      0.132575
O	      2.20482      2.20291     -2.23062        -0.100240      0.400860      0.316225
O	      2.20511      0.01879     -0.01866         0.001572      1.862976     -0.780541
