# total energy = -118.57450264 eV
 
CRYSTAL
PRIMVEC
4.282828 -0.001088 -0.000983 
2.141822 4.252714 -6.497536 
-2.143002 4.296666 2.194623 
PRIMCOORD
16 1
Li	      0.17155      0.10059     -0.06372        -0.292703      0.202741     -0.189575
Li	      2.22539      2.23447     -0.03035         0.085295      0.382067     -0.219566
Li	      4.45405      2.17572     -2.15383        -0.332363      0.306406      0.000562
Li	     -0.00177      6.67109     -2.17057         0.369973     -0.402646      0.032085
Ti	     -0.00204      4.49358      0.06840         0.477548     -0.072030     -0.821802
Ti	      2.22529      4.42164     -2.26531         0.114417      0.138944      0.238859
Ti	      4.45492      4.37954     -4.55346        -0.496352     -0.402478      1.489292
Ti	      2.22452      6.65803     -4.48443        -0.167629     -2.229957      0.602006
O	      0.16999      4.43049     -2.24074        -0.478910      0.000773     -0.032333
O	     -0.00218      2.34419      0.09873         0.647594      0.820532     -0.277904
O	      2.22603      6.61192     -2.24050         0.308825     -0.503207     -0.772210
O	      2.22468      4.48228      0.01829         0.215224     -0.152634     -0.780495
O	      2.22784      4.36417     -4.56742         0.146560      0.563632      1.115842
O	      4.45210      6.63753     -4.45268        -0.466180     -1.266475      0.149309
O	      2.22618      2.22424     -2.25222        -0.125136      0.425844      0.363167
O	      2.22647      0.01897     -0.01885        -0.006163      2.188488     -0.897237
