# total energy = -117.21585971 eV
 
CRYSTAL
PRIMVEC
2.001875 3.955885 1.994904 
3.981655 -1.967395 -1.993870 
0.012048 3.938546 -3.967248 
PRIMCOORD
16 1
Li	      0.06612      0.03331     -0.04394        -0.342011     -0.507825      0.763510
Li	      1.85935      1.93474     -0.02166        -0.454667     -0.263206      0.280613
Li	      3.85682      1.85311     -1.85964        -0.075908     -0.704854     -0.133385
Li	      1.85983      3.71777     -1.87444        -0.836523     -0.066313     -0.304330
Ti	      3.83197      3.75550     -0.02473         2.091833      1.671701      2.990316
Ti	      5.67819      3.78941     -1.89318         4.161250      1.775429      0.251401
Ti	      3.78234      5.65144     -1.89054         1.253831      3.797243      0.043015
Ti	      3.86432      3.79468     -3.73692         1.342720      1.182227     -3.507087
O	      1.86498      1.85114     -1.91685        -1.226344     -0.818269      0.113967
O	      3.75464      3.72480     -1.88272        -1.677631     -1.848276      0.314026
O	      1.97052      3.74640     -3.82581        -2.002654      0.465959     -0.904270
O	      3.82045      1.89638      0.00757         0.593720     -1.884831      0.891449
O	      3.78511      0.01983     -1.87338         0.780341     -1.845080     -0.101780
O	      1.98623      3.86649      0.00944        -2.455139     -0.277891      1.258342
O	      3.76844      1.88677     -3.78532         0.850936     -1.662694     -1.173902
O	      1.93334      5.66775     -1.88784        -2.003755      0.986679     -0.781884
