# total energy = -118.02143831 eV
 
CRYSTAL
PRIMVEC
2.012356 3.976597 2.005348 
4.002502 -1.977695 -2.004310 
0.012111 3.959166 -3.988019 
PRIMCOORD
16 1
Li	      0.06681      0.03366     -0.04440        -0.292669     -0.456150      0.667624
Li	      1.87887      1.95505     -0.02188        -0.390604     -0.216762      0.229770
Li	      3.89731      1.87257     -1.87916        -0.069537     -0.611410     -0.105932
Li	      1.87935      3.75680     -1.89412        -0.712730     -0.063762     -0.262142
Ti	      3.87220      3.79493     -0.02499         1.760640      1.423832      2.492176
Ti	      5.73780      3.82920     -1.91306         3.554598      1.571787      0.221486
Ti	      3.82205      5.71077     -1.91039         1.047836      3.219119      0.074585
Ti	      3.90489      3.83452     -3.77615         1.139203      0.993618     -2.922079
O	      1.88456      1.87058     -1.93697        -1.059494     -0.711815      0.091375
O	      3.79406      3.76390     -1.90249        -1.430683     -1.566439      0.265441
O	      1.99121      3.78573     -3.86597        -1.697708      0.401383     -0.788155
O	      3.86056      1.91628      0.00765         0.505527     -1.571544      0.751241
O	      3.82485      0.02004     -1.89305         0.666822     -1.613372     -0.104283
O	      2.00708      3.90708      0.00954        -2.063786     -0.261955      1.093704
O	      3.80800      1.90658     -3.82506         0.727015     -1.394908     -1.019771
O	      1.95364      5.72725     -1.90766        -1.684429      0.858379     -0.685040
