# total energy = -119.27142241 eV
 
CRYSTAL
PRIMVEC
2.033318 4.018020 2.026238 
4.044194 -1.998296 -2.025188 
0.012237 4.000408 -4.029561 
PRIMCOORD
16 1
Li	      0.06821      0.03437     -0.04533        -0.205878     -0.345266      0.483475
Li	      1.91822      1.99600     -0.02234        -0.270613     -0.134016      0.148431
Li	      3.97892      1.91179     -1.91852        -0.065541     -0.444189     -0.073653
Li	      1.91871      3.83547     -1.93378        -0.487165     -0.057575     -0.189681
Ti	      3.95329      3.87440     -0.02552         1.182602      0.974641      1.637150
Ti	      5.85796      3.90938     -1.95312         2.454710      1.165837      0.158718
Ti	      3.90209      5.83036     -1.95040         0.690324      2.205171      0.113254
Ti	      3.98666      3.91483     -3.85523         0.790941      0.661884     -1.914960
O	      1.92402      1.90975     -1.97754        -0.743956     -0.514779      0.049282
O	      3.87351      3.84273     -1.94233        -0.994556     -1.061031      0.181309
O	      2.03291      3.86502     -3.94693        -1.165014      0.274142     -0.564981
O	      3.94140      1.95641      0.00781         0.353284     -1.038385      0.502809
O	      3.90495      0.02046     -1.93269         0.452576     -1.170280     -0.095689
O	      2.04911      3.98890      0.00974        -1.373977     -0.212472      0.779974
O	      3.88775      1.94650     -3.90516         0.504667     -0.928552     -0.727557
O	      1.99455      5.84719     -1.94761        -1.122405      0.624871     -0.487881
