# total energy = -119.73214204 eV
 
CRYSTAL
PRIMVEC
2.043799 4.038731 2.036682 
4.065041 -2.008597 -2.035627 
0.012301 4.021028 -4.050332 
PRIMCOORD
16 1
Li	      0.06892      0.03472     -0.04580        -0.162538     -0.289260      0.398322
Li	      1.93804      2.01662     -0.02257        -0.217688     -0.102054      0.114417
Li	      4.02005      1.93154     -1.93834        -0.052949     -0.360301     -0.055590
Li	      1.93854      3.87511     -1.95377        -0.389752     -0.050366     -0.156222
Ti	      3.99415      3.91445     -0.02578         0.933792      0.774391      1.270829
Ti	      5.91851      3.94979     -1.97331         1.960447      0.962935      0.128498
Ti	      3.94242      5.89063     -1.97056         0.534293      1.759749      0.121426
Ti	      4.02787      3.95529     -3.89508         0.641502      0.518886     -1.485016
O	      1.94391      1.92949     -1.99798        -0.604094     -0.425708      0.033195
O	      3.91355      3.88244     -1.96241        -0.799527     -0.842570      0.141815
O	      2.05392      3.90497     -3.98773        -0.928586      0.214142     -0.466614
O	      3.98214      1.97664      0.00789         0.281520     -0.808388      0.398827
O	      3.94531      0.02067     -1.95267         0.354452     -0.961274     -0.088803
O	      2.07029      4.03013      0.00984        -1.078454     -0.173191      0.634816
O	      3.92794      1.96662     -3.94553         0.404869     -0.729704     -0.595215
O	      2.01517      5.90763     -1.96774        -0.877287      0.512713     -0.394687
