# total energy = -91.96976010 eV
 
CRYSTAL
PRIMVEC
-4.074116 -0.000027 -0.000001 
0.000001 -0.000002 4.073005 
0.000022 8.531160 0.000006 
PRIMCOORD
16 1
Li	     -2.03555      2.12864      0.00013         0.000138      0.002428     -0.000285
Li	     -4.07255      4.04828      0.00014         0.001399     -0.088491     -0.000168
Li	     -2.03559      0.21265      2.03658         0.001291      0.089761      0.000194
Li	     -4.07250      2.13228      2.03663         0.000662     -0.003045      0.000107
Mn	     -4.07264      0.09405      0.00010        -0.000304      0.094851      0.000045
Mn	     -2.03548      4.16667      2.03664        -0.000418     -0.093795     -0.000003
Ni	     -2.03546      6.39622      0.00011        -0.000685      0.000756     -0.000067
Ni	     -4.07248      6.39549      2.03662        -0.001663     -0.002181     -0.000022
O	     -2.03551      2.34832      2.03663        -0.001015      0.048076      0.000005
O	     -4.07251      4.33053      2.03664        -0.000735     -0.076458      0.000215
O	     -2.03555      6.16800      2.03661         0.000009     -0.012979      0.000104
O	     -4.07259      1.91252      0.00012        -0.000374     -0.055861     -0.000084
O	     -2.03543      4.33198      0.00014        -0.000072     -0.083111     -0.000131
O	     -4.07257      8.45973      2.03661         0.001029      0.084025     -0.000089
O	     -4.07258      6.62367      0.00010         0.000551      0.015949      0.000149
O	     -2.03553      8.46100      0.00010         0.000188      0.080074      0.000031
