# total energy = -120.09375821 eV
 
CRYSTAL
PRIMVEC
2.054280 4.059442 2.047127 
4.085887 -2.018897 -2.046066 
0.012364 4.041649 -4.071103 
PRIMCOORD
16 1
Li	      0.06963      0.03508     -0.04627        -0.120537     -0.235437      0.315786
Li	      1.95797      2.03736     -0.02281        -0.168012     -0.072457      0.084796
Li	      4.06139      1.95141     -1.95828        -0.045042     -0.285630     -0.039611
Li	      1.95847      3.91496     -1.97386        -0.297751     -0.041945     -0.123749
Ti	      4.03522      3.95470     -0.02604         0.706725      0.587015      0.938778
Ti	      5.97937      3.99041     -1.99360         1.499042      0.759834      0.098482
Ti	      3.98296      5.95120     -1.99082         0.389249      1.349166      0.120977
Ti	      4.06929      3.99596     -3.93513         0.503846      0.387794     -1.100661
O	      1.96390      1.94933     -2.01853        -0.471451     -0.337098      0.017558
O	      3.95379      3.92236     -1.98259        -0.613412     -0.638016      0.108347
O	      2.07504      3.94512     -4.02873        -0.713425      0.158518     -0.369048
O	      4.02309      1.99696      0.00797         0.218270     -0.602996      0.303146
O	      3.98588      0.02088     -1.97274         0.262067     -0.759095     -0.073816
O	      2.09158      4.07157      0.00994        -0.804437     -0.125336      0.496682
O	      3.96833      1.98684     -3.98610         0.310822     -0.548743     -0.467525
O	      2.03589      5.96837     -1.98797        -0.655954      0.404425     -0.310144
