# total energy = -120.36269330 eV
 
CRYSTAL
PRIMVEC
2.064761 4.080154 2.057571 
4.106733 -2.029198 -2.056505 
0.012427 4.062270 -4.091874 
PRIMCOORD
16 1
Li	      0.07034      0.03544     -0.04675        -0.082659     -0.175746      0.236062
Li	      1.97800      2.05820     -0.02304        -0.125049     -0.044837      0.056137
Li	      4.10293      1.97137     -1.97831        -0.032772     -0.208837     -0.025097
Li	      1.97851      3.95501     -1.99406        -0.213375     -0.034166     -0.089254
Ti	      4.07650      3.99515     -0.02631         0.503437      0.414392      0.640187
Ti	      6.04054      4.03123     -2.01399         1.072711      0.560300      0.069609
Ti	      4.02371      6.01208     -2.01119         0.258505      0.971894      0.114040
Ti	      4.11092      4.03684     -3.97539         0.379258      0.270535     -0.757718
O	      1.98399      1.96927     -2.03917        -0.348747     -0.258588      0.003067
O	      3.99424      3.96249     -2.00287        -0.447373     -0.454626      0.079609
O	      2.09627      3.98547     -4.06995        -0.512507      0.103759     -0.277229
O	      4.06425      2.01739      0.00805         0.158251     -0.415425      0.214051
O	      4.02665      0.02109     -1.99292         0.175389     -0.563101     -0.055993
O	      2.11298      4.11322      0.01004        -0.557231     -0.076876      0.365780
O	      4.00892      2.00717     -4.02688         0.225306     -0.392385     -0.345547
O	      2.05672      6.02943     -2.00831        -0.453145      0.303707     -0.227706
