# total energy = -120.54581942 eV
 
CRYSTAL
PRIMVEC
2.075243 4.100865 2.068016 
4.127580 -2.039498 -2.066944 
0.012490 4.082890 -4.112645 
PRIMCOORD
16 1
Li	      0.07106      0.03580     -0.04722        -0.046264     -0.115982      0.160455
Li	      1.99813      2.07915     -0.02327        -0.082563     -0.023585      0.032530
Li	      4.14470      1.99144     -1.99845        -0.017334     -0.136152     -0.010833
Li	      1.99865      3.99527     -2.01435        -0.136287     -0.028074     -0.056437
Ti	      4.11799      4.03582     -0.02658         0.322464      0.252733      0.372626
Ti	      6.10202      4.07226     -2.03449         0.677139      0.363770      0.042129
Ti	      4.06466      6.07327     -2.03166         0.140541      0.626548      0.099274
Ti	      4.15276      4.07793     -4.01585         0.266340      0.165025     -0.452794
O	      2.00418      1.98932     -2.05993        -0.231258     -0.182811     -0.015605
O	      4.03489      4.00282     -2.02325        -0.297146     -0.282503      0.048536
O	      2.11761      4.02604     -4.11137        -0.326691      0.055116     -0.187230
O	      4.10561      2.03792      0.00814         0.099669     -0.248893      0.141793
O	      4.06764      0.02131     -2.01321         0.090255     -0.373083     -0.034172
O	      2.13448      4.15509      0.01014        -0.328847     -0.020211      0.239789
O	      4.04972      2.02760     -4.06786         0.142114     -0.254345     -0.228244
O	      2.07765      6.09079     -2.02875        -0.272132      0.202447     -0.151818
