# total energy = -120.53670796 eV
 
CRYSTAL
PRIMVEC
2.117167 4.183711 2.109794 
4.210965 -2.080700 -2.108701 
0.012742 4.165373 -4.195728 
PRIMCOORD
16 1
Li	      0.07396      0.03726     -0.04915         0.076795      0.145376     -0.111244
Li	      2.07968      2.16401     -0.02422         0.050160      0.037381     -0.022726
Li	      4.31385      2.07271     -2.08001         0.057592      0.136420      0.027018
Li	      2.08022      4.15832     -2.09656         0.120868      0.014236      0.058205
Ti	      2.16889      0.01682     -2.13746        -0.224918     -0.291676     -0.441927
Ti	      0.02292      2.13544     -2.11861        -0.617073     -0.381083     -0.063162
Ti	      2.11338      2.13742     -4.22437        -0.241096     -0.459811     -0.017747
Ti	      4.32224      4.24436     -4.17974        -0.079022     -0.135464      0.439307
O	      2.08598      2.07050     -2.14400         0.166249      0.054695     -0.076322
O	      4.19957      4.16618     -2.10583         0.182913      0.268869     -0.028058
O	      2.20403      4.19036     -4.27916         0.279166     -0.126209      0.144546
O	      4.27317      2.12109      0.00847        -0.097621      0.222814     -0.081802
O	      4.23365      0.02218     -2.09538        -0.200129      0.338538      0.084651
O	      2.22160      4.32467      0.01056         0.377573      0.236325     -0.225007
O	      4.21500      2.11035     -4.23388        -0.127198      0.136955      0.201720
O	      2.16244      6.33938     -2.11155         0.275739     -0.197365      0.112549
