# total energy = -120.37592795 eV
 
CRYSTAL
PRIMVEC
2.127648 4.204423 2.120238 
4.231812 -2.091001 -2.119140 
0.012805 4.185994 -4.216499 
PRIMCOORD
16 1
Li	      0.07469      0.03763     -0.04964         0.102781      0.216342     -0.170937
Li	      2.10032      2.18549     -0.02446         0.079148      0.047270     -0.030657
Li	      4.35666      2.09328     -2.10065         0.080491      0.198023      0.034788
Li	      2.10087      4.19960     -2.11737         0.172720      0.027901      0.085566
Ti	      2.20095      0.03780     -2.14818        -0.328703     -0.403540     -0.591221
Ti	      0.05464      2.16710     -2.13964        -0.874549     -0.549292     -0.087343
Ti	      2.14489      2.17946     -4.25580        -0.310751     -0.667155     -0.058274
Ti	      4.36514      4.28648     -4.22123        -0.147174     -0.189533      0.591877
O	      2.10668      2.09105     -2.16528         0.248028      0.097513     -0.095071
O	      4.24125      4.20754     -2.12673         0.268919      0.379633     -0.036007
O	      2.22591      4.23194     -4.32164         0.407952     -0.160759      0.218171
O	      4.31558      2.14215      0.00855        -0.142324      0.299939     -0.118434
O	      4.27567      0.02240     -2.11617        -0.259940      0.504027      0.121808
O	      2.24364      4.36760      0.01066         0.511143      0.304468     -0.330600
O	      4.25684      2.13130     -4.27590        -0.178784      0.197390      0.298182
O	      2.18391      6.40230     -2.13251         0.371043     -0.302228      0.168151
