# total energy = -119.89675503 eV
 
CRYSTAL
PRIMVEC
2.148610 4.245845 2.141127 
4.273504 -2.111602 -2.140018 
0.012931 4.227235 -4.258041 
PRIMCOORD
16 1
Li	      0.07617      0.03837     -0.05062         0.151323      0.370617     -0.279378
Li	      2.14191      2.22876     -0.02495         0.126943      0.064196     -0.041387
Li	      4.44293      2.13473     -2.14225         0.127976      0.319703      0.046099
Li	      2.14246      4.28275     -2.15930         0.261122      0.054141      0.137421
Ti	      2.26570      0.08038     -2.16962        -0.507255     -0.599149     -0.842863
Ti	      0.11899      2.23104     -2.18200        -1.327327     -0.852097     -0.136013
Ti	      2.20853      2.26444     -4.31898        -0.409812     -1.014979     -0.150438
Ti	      4.45158      4.37136     -4.30482        -0.269603     -0.282749      0.830460
O	      2.14840      2.13246     -2.20815         0.408372      0.168297     -0.130125
O	      4.32523      4.29086     -2.16884         0.417732      0.565589     -0.051743
O	      2.26998      4.31574     -4.40721         0.623315     -0.230209      0.359998
O	      4.40104      2.18457      0.00872        -0.227700      0.418874     -0.168425
O	      4.36033      0.02284     -2.15807        -0.362566      0.821539      0.198067
O	      2.28807      4.45408      0.01087         0.730096      0.436715     -0.530941
O	      4.34113      2.17350     -4.36058        -0.257309      0.282126      0.488989
O	      2.22715      6.52907     -2.17473         0.514691     -0.522614      0.270279
