# total energy = -119.23501385 eV
 
CRYSTAL
PRIMVEC
2.169572 4.287268 2.162016 
4.315197 -2.132203 -2.160896 
0.013057 4.268476 -4.299583 
PRIMCOORD
16 1
Li	      0.07767      0.03913     -0.05162         0.192071      0.542982     -0.373791
Li	      2.18391      2.27246     -0.02544         0.168825      0.068956     -0.049430
Li	      4.53005      2.17659     -2.18425         0.179689      0.431264      0.047269
Li	      2.18447      4.36672     -2.20164         0.331240      0.083689      0.187746
Ti	      2.33129      0.12378     -2.19107        -0.663603     -0.748326     -1.031576
Ti	      0.18459      2.29581     -2.22477        -1.702482     -1.108364     -0.172644
Ti	      2.27300      2.35067     -4.38257        -0.433775     -1.272676     -0.255781
Ti	      4.53886      4.45707     -4.38922        -0.401245     -0.373953      0.974031
O	      2.19052      2.17427     -2.25145         0.533391      0.221525     -0.171496
O	      4.41004      4.37498     -2.21136         0.529284      0.696231     -0.075224
O	      2.31449      4.40036     -4.49363         0.809337     -0.284825      0.484855
O	      4.48733      2.22740      0.00889        -0.311943      0.486986     -0.174267
O	      4.44583      0.02329     -2.20039        -0.445265      1.125841      0.287550
O	      2.33293      4.54141      0.01109         0.898633      0.560516     -0.718054
O	      4.42625      2.21611     -4.44607        -0.299452      0.325183      0.675104
O	      2.27082      6.65709     -2.21738         0.615295     -0.755029      0.365709
