# total energy = -116.70910324 eV
 
CRYSTAL
PRIMVEC
3.912381 -0.000771 -0.000724 
1.956519 3.892901 -6.059767 
-1.957342 3.960194 2.064233 
PRIMCOORD
16 1
Li	      0.00169      0.07242     -0.01897        -0.210782     -0.551871      0.017571
Li	      1.86932      1.80495      0.03508         0.339019     -0.438870      0.273415
Li	      3.73816      1.83626     -1.76041         0.661479     -0.560348     -0.245350
Li	      3.73785      3.75759     -4.01142         0.668179     -0.487176     -0.467345
Ti	      0.00068      3.77197      0.02722        -1.412241      1.690671      1.359421
Ti	      1.87030      3.72688     -1.93550        -1.729011     -0.159187     -0.258224
Ti	      0.00012      5.64936     -1.86313        -2.470744      2.125672      0.794841
Ti	      1.86962      5.60517     -3.82661        -1.111084      2.510655     -1.994709
O	      3.73808      3.70267     -1.91915         1.958113     -1.713227     -2.085886
O	      0.00141      1.96327      0.11408        -0.796670     -3.051785      0.316651
O	      1.86875      5.67276     -1.88070         1.590407      2.968744      1.733262
O	      1.86898      3.79328     -0.00771         1.449646      0.400336      2.093892
O	      1.86953      3.74958     -3.84495        -0.220794     -1.712695     -3.086659
O	      3.73777      5.58295     -3.79209         1.995868      0.556223     -2.435448
O	      1.87022      1.84497     -1.92531        -0.125305     -2.102361      0.658600
O	      0.00086      3.69567      1.87419        -0.586079      0.525219      3.325969
