# total energy = -117.63369930 eV
 
CRYSTAL
PRIMVEC
3.932865 -0.000775 -0.000727 
1.966762 3.913283 -6.091494 
-1.967590 3.980928 2.075041 
PRIMCOORD
16 1
Li	      0.00171      0.07318     -0.01918        -0.193341     -0.469954      0.021786
Li	      1.88895      1.82390      0.03545         0.275808     -0.373777      0.222355
Li	      3.77741      1.85555     -1.77889         0.567342     -0.475852     -0.198128
Li	      3.77709      3.79704     -4.05353         0.567689     -0.401330     -0.415370
Ti	      0.00068      3.81157      0.02751        -1.166951      1.376460      1.205198
Ti	      1.88994      3.76600     -1.95582        -1.434758     -0.123851     -0.254638
Ti	      0.00012      5.70867     -1.88270        -2.099698      1.797151      0.658885
Ti	      1.88924      5.66402     -3.86679        -0.869855      2.079130     -1.659212
O	      3.77732      3.74154     -1.93929         1.666810     -1.467567     -1.773742
O	      0.00143      1.98388      0.11528        -0.690695     -2.573546      0.273192
O	      1.88836      5.73232     -1.90045         1.296819      2.531897      1.452885
O	      1.88860      3.83310     -0.00779         1.167867      0.341893      1.758609
O	      1.88916      3.78894     -3.88532        -0.171773     -1.396929     -2.624536
O	      3.77702      5.64156     -3.83190         1.688159      0.465204     -2.089688
O	      1.88985      1.86434     -1.94553        -0.086581     -1.769657      0.589732
O	      0.00087      3.73447      1.89387        -0.516841      0.460728      2.832672
