# total energy = -118.41430488 eV
 
CRYSTAL
PRIMVEC
3.953348 -0.000779 -0.000731 
1.977006 3.933665 -6.123221 
-1.977838 4.001662 2.085848 
PRIMCOORD
16 1
Li	      0.00173      0.07394     -0.01938        -0.175420     -0.394112      0.022242
Li	      1.90867      1.84296      0.03581         0.221377     -0.311583      0.180010
Li	      3.81686      1.87492     -1.79747         0.480964     -0.398602     -0.157629
Li	      3.81654      3.83670     -4.09587         0.477105     -0.330088     -0.362399
Ti	      0.00069      3.85137      0.02780        -0.950024      1.098390      1.049466
Ti	      1.90968      3.80534     -1.97625        -1.169849     -0.095365     -0.236589
Ti	      0.00012      5.76829     -1.90236        -1.758108      1.492408      0.534782
Ti	      1.90898      5.72317     -3.90718        -0.662934      1.695151     -1.361110
O	      3.81677      3.78062     -1.95955         1.396870     -1.239313     -1.484603
O	      0.00144      2.00460      0.11648        -0.588229     -2.132763      0.229837
O	      1.90809      5.79219     -1.92030         1.031232      2.126905      1.197509
O	      1.90832      3.87313     -0.00787         0.920451      0.288586      1.459865
O	      1.90890      3.82852     -3.92590        -0.128420     -1.113675     -2.195931
O	      3.81646      5.70048     -3.87193         1.410121      0.382687     -1.763744
O	      1.90959      1.88381     -1.96584        -0.052053     -1.467000      0.514468
O	      0.00088      3.77347      1.91365        -0.453081      0.398373      2.373827
