# total energy = -119.99291217 eV
 
CRYSTAL
PRIMVEC
4.014799 -0.000791 -0.000743 
2.007737 3.994810 -6.218400 
-2.008582 4.063864 2.118271 
PRIMCOORD
16 1
Li	      0.00178      0.07626     -0.01998        -0.110079     -0.198109      0.024687
Li	      1.96847      1.90069      0.03694         0.095110     -0.158989      0.075305
Li	      3.93644      1.93367     -1.85378         0.249946     -0.196751     -0.057519
Li	      3.93611      3.95690     -4.22420         0.245179     -0.157623     -0.213328
Ti	      0.00071      3.97204      0.02867        -0.431264      0.456082      0.584714
Ti	      1.96951      3.92455     -2.03816        -0.540250     -0.026954     -0.145271
Ti	      0.00013      5.94901     -1.96196        -0.874408      0.714400      0.231029
Ti	      1.96879      5.90248     -4.02958        -0.222566      0.776375     -0.650335
O	      3.93635      3.89906     -2.02094         0.695539     -0.642359     -0.745705
O	      0.00149      2.06740      0.12013        -0.315665     -1.006956      0.129437
O	      1.96786      5.97366     -1.98046         0.436269      1.089914      0.580135
O	      1.96811      3.99447     -0.00812         0.376617      0.146329      0.713264
O	      1.96870      3.94846     -4.04889        -0.036592     -0.454600     -1.094792
O	      3.93603      5.87908     -3.99323         0.693318      0.179650     -0.904065
O	      1.96942      1.94283     -2.02743        -0.000934     -0.716190      0.279556
O	      0.00091      3.89169      1.97360        -0.260221      0.195782      1.192885
