# total energy = -93.05267841 eV
 
CRYSTAL
PRIMVEC
2.061960 4.051483 2.062271 
2.077360 -4.066909 2.077734 
4.238377 0.000092 -4.238978 
PRIMCOORD
16 1
Li	      4.27158      4.04964     -0.14631        -0.002901     -0.000223      0.001749
Li	      4.11959      2.02328     -2.05783         0.002983      0.000638     -0.001285
Li	      4.28326     -0.01010     -0.14034         0.022466     -0.000515     -0.024682
Li	      6.18556      2.01622      0.01431        -0.022598     -0.001081      0.024594
Mn	      6.25390      4.04945     -2.13009        -0.047644     -0.000796      0.047980
Mn	      2.13697      2.02342     -0.07428         0.046409      0.001367     -0.047213
Ni	      6.25174     -0.00988     -2.11253        -0.009866     -0.001012      0.011954
Ni	      4.21641      2.01598      1.98598         0.009813     -0.001086     -0.010905
O	      6.44440      0.03059     -0.10660         0.062990     -0.000525      0.126058
O	      4.02376      1.97542     -0.01991        -0.062846     -0.000112     -0.127020
O	      4.24606     -0.05007     -2.30550        -0.125029     -0.000222     -0.063835
O	      4.10162     -0.09062      2.18365         0.100226     -0.087971      0.036138
O	      4.16015     -1.99541      0.11659         0.125943     -0.000799      0.063779
O	      2.12814      2.09642      1.92879        -0.099767      0.091274     -0.037392
O	      1.95637      0.07073      0.03831        -0.035732      0.089053     -0.101001
O	      2.21143     -2.11627      2.01174         0.035553     -0.087991      0.101082
