# total energy = -120.29568882 eV
 
CRYSTAL
PRIMVEC
4.035283 -0.000795 -0.000746 
2.017980 4.015191 -6.250127 
-2.018829 4.084598 2.129078 
PRIMCOORD
16 1
Li	      0.00180      0.07704     -0.02019        -0.083880     -0.144977      0.024203
Li	      1.98861      1.92013      0.03731         0.063252     -0.115350      0.049977
Li	      3.97671      1.95345     -1.87275         0.180666     -0.139329     -0.034903
Li	      3.97638      3.99738     -4.26741         0.175230     -0.112792     -0.163452
Ti	      0.00072      4.01267      0.02896        -0.296822      0.307896      0.436010
Ti	      1.98965      3.96471     -2.05901        -0.379491     -0.010329     -0.116492
Ti	      0.00013      6.00987     -1.98203        -0.620332      0.499676      0.162753
Ti	      1.98893      5.96286     -4.07081        -0.130560      0.532254     -0.463630
O	      3.97662      3.93895     -2.04162         0.494478     -0.477031     -0.537494
O	      0.00150      2.08855      0.12136        -0.233812     -0.692903      0.104503
O	      1.98800      6.03477     -2.00072         0.289032      0.797021      0.412098
O	      1.98825      4.03534     -0.00820         0.251658      0.106871      0.512248
O	      1.98884      3.98885     -4.09031        -0.020286     -0.297493     -0.784313
O	      3.97630      5.93922     -4.03408         0.498193      0.130108     -0.658998
O	      1.98956      1.96270     -2.04817         0.007135     -0.509448      0.202294
O	      0.00092      3.93150      1.99379        -0.194461      0.125825      0.855196
