# total energy = -120.50029433 eV
 
CRYSTAL
PRIMVEC
4.055767 -0.000799 -0.000750 
2.028224 4.035573 -6.281853 
-2.029077 4.105332 2.139886 
PRIMCOORD
16 1
Li	      0.00182      0.07782     -0.02039        -0.056967     -0.092433      0.020203
Li	      2.00885      1.93968      0.03770         0.037902     -0.074686      0.027423
Li	      4.01718      1.97333     -1.89181         0.117808     -0.084618     -0.013457
Li	      4.01685      4.03807     -4.31084         0.112538     -0.073134     -0.115413
Ti	      0.00073      4.05351      0.02925        -0.181327      0.191583      0.291977
Ti	      2.00990      4.00506     -2.07997        -0.240490      0.004148     -0.092449
Ti	      0.00013      6.07104     -2.00220        -0.387171      0.306221      0.109980
Ti	      2.00917      6.02355     -4.11224        -0.064582      0.315634     -0.297716
O	      4.01710      3.97904     -2.06240         0.319472     -0.321654     -0.344531
O	      0.00152      2.10981      0.12259        -0.153554     -0.407596      0.083911
O	      2.00823      6.09619     -2.02108         0.168829      0.528235      0.256598
O	      2.00848      4.07641     -0.00828         0.147050      0.067799      0.332695
O	      2.00908      4.02945     -4.13194        -0.006658     -0.165918     -0.497022
O	      4.01677      5.99967     -4.07514         0.311729      0.080122     -0.428583
O	      2.00981      1.98268     -2.06902         0.009817     -0.329246      0.130235
O	      0.00093      3.97152      2.01408        -0.134395      0.055545      0.536149
