# total energy = -120.61405920 eV
 
CRYSTAL
PRIMVEC
4.076250 -0.000803 -0.000754 
2.038467 4.055955 -6.313580 
-2.039325 4.126066 2.150693 
PRIMCOORD
16 1
Li	      0.00184      0.07861     -0.02060        -0.028852     -0.042898      0.017392
Li	      2.02919      1.95932      0.03808         0.018050     -0.038631      0.006836
Li	      4.05786      1.99331     -1.91097         0.057997     -0.036502      0.004676
Li	      4.05752      4.07896     -4.35450         0.052282     -0.038567     -0.071582
Ti	      0.00073      4.09456      0.02955        -0.083031      0.101845      0.153763
Ti	      2.03026      4.04561     -2.10103        -0.121020      0.014260     -0.073413
Ti	      0.00013      6.13251     -2.02248        -0.173387      0.134724      0.072279
Ti	      2.02952      6.08455     -4.15389        -0.020718      0.124360     -0.151848
O	      4.05777      4.01934     -2.08328         0.155272     -0.187676     -0.166282
O	      0.00153      2.13118      0.12384        -0.077381     -0.150636      0.062606
O	      2.02857      6.15793     -2.04155         0.066169      0.285224      0.123073
O	      2.02882      4.11769     -0.00837         0.067887      0.032341      0.173092
O	      2.02943      4.07025     -4.17378         0.001327     -0.054668     -0.233681
O	      4.05744      6.06043     -4.11641         0.147105      0.039101     -0.214282
O	      2.03017      2.00276     -2.08997         0.006175     -0.169149      0.062531
O	      0.00093      4.01174      2.03448        -0.067875     -0.013129      0.234841
