# total energy = -120.59758658 eV
 
CRYSTAL
PRIMVEC
4.117218 -0.000811 -0.000762 
2.058954 4.096718 -6.377033 
-2.059821 4.167534 2.172308 
PRIMCOORD
16 1
Li	      0.00187      0.08020     -0.02101         0.033780      0.051080      0.007600
Li	      2.07018      1.99890      0.03884        -0.013141      0.022296     -0.026973
Li	      4.13984      2.03358     -1.94957        -0.050927      0.047915      0.032743
Li	      4.13949      4.16136     -4.44247        -0.050638      0.020645      0.035662
Ti	      0.00075      4.17728      0.03015         0.066974     -0.006455     -0.099615
Ti	      2.07127      4.12734     -2.14348         0.065524      0.018749     -0.054521
Ti	      0.00013      6.25640     -2.06334         0.194172     -0.145743      0.046456
Ti	      2.07051      6.20747     -4.23780         0.004268     -0.188961      0.086004
O	      0.02253      4.10134     -2.12461        -0.123719      0.058655      0.141247
O	      0.00157      2.17423      0.12634         0.067956      0.300390      0.030066
O	      2.06955      6.28232     -2.08279        -0.065506     -0.143154     -0.094176
O	      2.06981      4.20088     -0.00854        -0.034895     -0.029966     -0.109702
O	      2.07043      4.15248     -4.25811        -0.001808      0.092530      0.225384
O	      4.13941      6.18285     -4.19956        -0.146026     -0.037661      0.161531
O	      2.07118      2.04322     -2.13219        -0.013827      0.100038     -0.064428
O	      0.00096      4.09278      2.07557         0.067813     -0.160358     -0.317280
