# total energy = -120.29887832 eV
 
CRYSTAL
PRIMVEC
4.158185 -0.000819 -0.000769 
2.079441 4.137482 -6.440486 
-2.080317 4.209002 2.193923 
PRIMCOORD
16 1
Li	      0.00191      0.08180     -0.02144         0.100604      0.148004     -0.009361
Li	      2.11159      2.03888      0.03962        -0.026748      0.071353     -0.051945
Li	      4.22263      2.07425     -1.98856        -0.147304      0.119895      0.050763
Li	      4.22228      4.24458     -4.53131        -0.140067      0.061982      0.152407
Ti	      0.00076      4.26083      0.03075         0.159442     -0.041360     -0.319770
Ti	      2.11270      4.20989     -2.18634         0.182809     -0.007201     -0.056707
Ti	      0.00014      6.38153     -2.10461         0.486469     -0.333435      0.071605
Ti	      2.11192      6.33161     -4.32255        -0.047299     -0.419703      0.268800
O	      0.06435      4.18336     -2.16710        -0.336161      0.257872      0.384982
O	      0.00160      2.21771      0.12886         0.204013      0.662330     -0.001578
O	      2.11094      6.40797     -2.12445        -0.122697     -0.508242     -0.256762
O	      2.11120      4.28489     -0.00871        -0.072925     -0.076695     -0.329843
O	      2.11183      4.23553     -4.34326        -0.020075      0.157348      0.605397
O	      4.22219      6.30651     -4.28355        -0.379263     -0.105896      0.480858
O	      2.11260      2.08409     -2.17484        -0.044962      0.310894     -0.170585
O	      0.00097      4.17463      2.11709         0.204163     -0.297146     -0.818261
