# total energy = -120.05839343 eV
 
CRYSTAL
PRIMVEC
4.178669 -0.000823 -0.000773 
2.089685 4.157863 -6.472212 
-2.090564 4.229736 2.204731 
PRIMCOORD
16 1
Li	      0.00193      0.08261     -0.02165         0.136149      0.197233     -0.020425
Li	      2.13244      2.05902      0.04001        -0.030823      0.091516     -0.063810
Li	      4.26434      2.09474     -2.00820        -0.189877      0.151141      0.054121
Li	      4.26398      4.28650     -4.57607        -0.180554      0.078179      0.215924
Ti	      0.00077      4.30291      0.03105         0.187021     -0.037717     -0.419582
Ti	      2.13356      4.25146     -2.20794         0.216947     -0.030133     -0.063467
Ti	      0.00014      6.44455     -2.12539         0.606376     -0.396853      0.097254
Ti	      2.13278      6.39415     -4.36525        -0.098879     -0.506567      0.346120
O	      0.08557      4.22467     -2.18851        -0.419627      0.345434      0.488242
O	      0.00161      2.23962      0.13014         0.273063      0.817890     -0.014197
O	      2.13179      6.47126     -2.14543        -0.123559     -0.670478     -0.322041
O	      2.13206      4.32721     -0.00879        -0.066102     -0.094815     -0.422343
O	      2.13269      4.27736     -4.38616        -0.036879      0.167931      0.767784
O	      4.26390      6.36879     -4.32586        -0.481365     -0.138963      0.625490
O	      2.13346      2.10467     -2.19631        -0.065973      0.392733     -0.217573
O	      0.00099      4.21586      2.13800         0.274083     -0.366532     -1.051497
