# total energy = -119.76339612 eV
 
CRYSTAL
PRIMVEC
4.199152 -0.000827 -0.000777 
2.099929 4.178245 -6.503939 
-2.100812 4.250470 2.215539 
PRIMCOORD
16 1
Li	      0.00195      0.08342     -0.02186         0.175253      0.249945     -0.032304
Li	      2.15340      2.07925      0.04041        -0.030376      0.107255     -0.074025
Li	      4.30625      2.11532     -2.02794        -0.231457      0.178915      0.057716
Li	      4.30588      4.32863     -4.62104        -0.214674      0.095982      0.284567
Ti	      0.00078      4.34519      0.03136         0.203843     -0.021109     -0.514280
Ti	      2.15453      4.29325     -2.22964         0.236749     -0.053700     -0.068422
Ti	      0.00014      6.50789     -2.14628         0.709808     -0.439973      0.126062
Ti	      2.15374      6.45699     -4.40814        -0.167177     -0.574774      0.418774
O	      0.10700      4.26619     -2.21003        -0.490512      0.427169      0.578936
O	      0.00163      2.26163      0.13142         0.337822      0.956742     -0.028971
O	      2.15274      6.53485     -2.16651        -0.105210     -0.817307     -0.378516
O	      2.15301      4.36974     -0.00888        -0.052854     -0.112660     -0.505768
O	      2.15365      4.31940     -4.42927        -0.059267      0.152859      0.925030
O	      4.30580      6.43139     -4.36838        -0.569839     -0.169979      0.754624
O	      2.15444      2.12535     -2.21790        -0.087895      0.458563     -0.256967
O	      0.00099      4.25730      2.15901         0.345786     -0.437927     -1.286457
