# total energy = -119.41881251 eV
 
CRYSTAL
PRIMVEC
4.219636 -0.000831 -0.000780 
2.110172 4.198627 -6.535665 
-2.111060 4.271204 2.226346 
PRIMCOORD
16 1
Li	      0.00197      0.08424     -0.02207         0.215984      0.300448     -0.046302
Li	      2.17446      2.09959      0.04080        -0.027585      0.122753     -0.081700
Li	      4.34836      2.13601     -2.04777        -0.268015      0.203222      0.058020
Li	      4.34800      4.37097     -4.66623        -0.247495      0.109012      0.358456
Ti	      0.00079      4.38769      0.03167         0.211773      0.002958     -0.603921
Ti	      2.17560      4.33524     -2.25144         0.242117     -0.079652     -0.069992
Ti	      0.00014      6.57153     -2.16726         0.798789     -0.470724      0.158098
Ti	      2.17481      6.52014     -4.45125        -0.248940     -0.629069      0.489400
O	      0.12863      4.30791     -2.23164        -0.549593      0.499668      0.660495
O	      0.00164      2.28375      0.13270         0.406029      1.084144     -0.049360
O	      2.17379      6.59877     -2.18770        -0.075902     -0.949620     -0.422603
O	      2.17406      4.41247     -0.00897        -0.024968     -0.127059     -0.570253
O	      2.17471      4.36164     -4.47258        -0.082998      0.126434      1.058057
O	      4.34791      6.49428     -4.41110        -0.652295     -0.203184      0.866384
O	      2.17550      2.14614     -2.23959        -0.112559      0.520743     -0.293745
O	      0.00100      4.29893      2.18013         0.415659     -0.510075     -1.511033
