# total energy = -119.02875479 eV
 
CRYSTAL
PRIMVEC
4.240120 -0.000835 -0.000784 
2.120416 4.219008 -6.567392 
-2.121308 4.291938 2.237154 
PRIMCOORD
16 1
Li	      0.00199      0.08506     -0.02229         0.256801      0.357017     -0.062020
Li	      2.19562      2.12002      0.04120        -0.022293      0.138325     -0.088854
Li	      4.39068      2.15680     -2.06770        -0.301937      0.228066      0.058486
Li	      4.39032      4.41351     -4.71165        -0.274673      0.118006      0.442744
Ti	      0.00080      4.43039      0.03198         0.212688      0.032543     -0.684486
Ti	      2.19678      4.37743     -2.27335         0.235845     -0.104810     -0.071118
Ti	      0.00014      6.63549     -2.18836         0.874738     -0.483325      0.188229
Ti	      2.19597      6.58359     -4.49458        -0.341223     -0.665160      0.559134
O	      0.15046      4.34983     -2.25336        -0.594889      0.564590      0.729684
O	      0.00166      2.30597      0.13399         0.469753      1.192388     -0.072900
O	      2.19494      6.66299     -2.20899        -0.032335     -1.076273     -0.457712
O	      2.19522      4.45542     -0.00905         0.010358     -0.138312     -0.631127
O	      2.19588      4.40410     -4.51611        -0.108832      0.088218      1.181082
O	      4.39023      6.55749     -4.45403        -0.725851     -0.239023      0.969727
O	      2.19668      2.16703     -2.26139        -0.138846      0.566612     -0.326817
O	      2.12232      0.04884     -0.03581         0.480696     -0.578861     -1.734053
