# total energy = -90.03904608 eV
 
CRYSTAL
PRIMVEC
-4.202796 -0.002225 -0.000042 
0.000049 0.000057 4.152824 
0.004219 8.348769 0.000135 
PRIMCOORD
16 1
Li	      0.00006      4.35753      0.00034         0.002614      0.052672     -0.000531
Li	     -2.09738      6.07769      0.00110        -0.001624     -0.054399     -0.003014
Li	     -2.10182      4.34590      2.07693         0.003940      0.055061     -0.001233
Li	     -4.19755      6.08696      2.07715        -0.004685     -0.064828     -0.000972
Mn	     -4.19784      8.24180      4.15256        -0.001045      0.002988      0.000535
Mn	     -2.10203      2.19092      4.15236         0.000872      0.009343      0.000501
Ni	     -2.09610      8.23312      2.07617         0.001116     -0.127992      0.000415
Ni	     -0.00094      2.20189      2.07587        -0.001297      0.129517      0.000790
O	     -2.10241      2.00222      2.07586         0.004458     -0.035255      0.000481
O	     -0.00116      4.13397      2.07634         0.008666      0.094568      0.000337
O	     -2.09573      6.30112      2.07685        -0.008823     -0.093377     -0.000611
O	     -0.00063      1.92861      4.15225         0.000430     -0.014066      0.001352
O	     -2.10255      4.00126      4.15269         0.003545      0.043215      0.000517
O	     -4.20165      0.08153      2.07593        -0.004617      0.041283      0.001143
O	     -4.19727      6.43144      0.00023        -0.003241     -0.057677     -0.000382
O	     -2.10070      0.15750      4.15238        -0.000308      0.018948      0.000674
