# total energy = -118.59617029 eV
 
CRYSTAL
PRIMVEC
4.260603 -0.000839 -0.000788 
2.130659 4.239390 -6.599118 
-2.131556 4.312672 2.247961 
PRIMCOORD
16 1
Li	      0.00201      0.08588     -0.02250         0.300702      0.415752     -0.080790
Li	      2.21689      2.14056      0.04159        -0.015408      0.148246     -0.096209
Li	      4.43321      2.17769     -2.08773        -0.337410      0.250640      0.056728
Li	      4.43283      4.45625     -4.75728        -0.298070      0.125375      0.532247
Ti	      0.00080      4.47330      0.03229         0.203407      0.076436     -0.766265
Ti	      2.21805      4.41982     -2.29537         0.216479     -0.130358     -0.073282
Ti	      0.00014      6.69976     -2.20955         0.935186     -0.487030      0.230496
Ti	      2.21724      6.64736     -4.53811        -0.447014     -0.694755      0.622440
O	      0.17250      4.39195     -2.27519        -0.624359      0.620396      0.792653
O	      0.00168      2.32830      0.13529         0.529341      1.301878     -0.095188
O	      2.21620      6.72752     -2.23039         0.028232     -1.188010     -0.489838
O	      2.21648      4.49857     -0.00915         0.056731     -0.147406     -0.682962
O	      2.21714      4.44675     -4.55985        -0.140311      0.035282      1.294927
O	      4.43275      6.62100     -4.49716        -0.786934     -0.271725      1.070319
O	      2.21795      2.18801     -2.28329        -0.168090      0.599115     -0.358761
O	      2.13258      0.07014     -0.02530         0.547518     -0.653836     -1.956515
