# total energy = -118.12546811 eV
 
CRYSTAL
PRIMVEC
4.281087 -0.000843 -0.000792 
2.140903 4.259772 -6.630845 
-2.141804 4.333406 2.258769 
PRIMCOORD
16 1
Li	      0.00202      0.08671     -0.02272         0.343792      0.477928     -0.098209
Li	      2.23825      2.16119      0.04200        -0.004348      0.157055     -0.103074
Li	      4.47594      2.19868     -2.10785        -0.365703      0.272380      0.055931
Li	      4.47556      4.49920     -4.80313        -0.315130      0.136032      0.636198
Ti	      0.00081      4.51642      0.03260         0.188389      0.118682     -0.833075
Ti	      2.23943      4.46242     -2.31750         0.185143     -0.159243     -0.078207
Ti	      0.00014      6.76433     -2.23085         0.981294     -0.472021      0.276637
Ti	      2.23861      6.71143     -4.58185        -0.561263     -0.710180      0.683676
O	      0.19475      4.43428     -2.29713        -0.643475      0.667174      0.840642
O	      0.00169      2.35074      0.13660         0.586734      1.389380     -0.122089
O	      2.23756      6.79236     -2.25188         0.096093     -1.284705     -0.509264
O	      2.23785      4.54193     -0.00923         0.110495     -0.155029     -0.740011
O	      2.23852      4.48961     -4.60380        -0.176075     -0.036334      1.399466
O	      4.47547      6.68482     -4.54051        -0.843328     -0.303592      1.161737
O	      2.23933      2.20910     -2.30530        -0.197661      0.626518     -0.385133
O	      2.14284      0.09165     -0.01468         0.615044     -0.724045     -2.185225
