# total energy = -117.61977011 eV
 
CRYSTAL
PRIMVEC
4.301571 -0.000847 -0.000796 
2.151146 4.280153 -6.662572 
-2.152052 4.354140 2.269576 
PRIMCOORD
16 1
Li	      0.00205      0.08754     -0.02294         0.388589      0.545167     -0.119831
Li	      2.25972      2.18192      0.04240         0.006463      0.164175     -0.109290
Li	      4.51887      2.21977     -2.12807        -0.395056      0.288426      0.053494
Li	      4.51849      4.54236     -4.84921        -0.327900      0.142334      0.747388
Ti	      0.00082      4.55974      0.03291         0.169083      0.161595     -0.891376
Ti	      2.26091      4.50523     -2.33972         0.142951     -0.189190     -0.087576
Ti	      0.00014      6.82922     -2.25225         1.014079     -0.443065      0.328731
Ti	      2.26009      6.77580     -4.62580        -0.681894     -0.717449      0.745532
O	      0.21720      4.47681     -2.31917        -0.647288      0.708213      0.881636
O	      0.00171      2.37330      0.13790         0.640275      1.465400     -0.158892
O	      2.25903      6.85752     -2.27348         0.180739     -1.370579     -0.524623
O	      2.25931      4.58550     -0.00932         0.171487     -0.160820     -0.779067
O	      2.25999      4.53267     -4.64797        -0.211696     -0.117429      1.491169
O	      4.51840      6.74894     -4.58407        -0.895402     -0.341308      1.243935
O	      2.26081      2.23029     -2.32741        -0.232292      0.645035     -0.408086
O	      2.15310      0.11337     -0.00397         0.677864     -0.780507     -2.413145
