# total energy = -116.98614141 eV
 
CRYSTAL
PRIMVEC
2.010441 3.906394 1.961732 
4.023067 -1.942369 -1.985183 
0.020261 3.913410 -3.957861 
PRIMCOORD
16 1
Li	      1.90406      3.69363      1.81987        -0.135269     -0.084200      0.630429
Li	      1.93825      1.90473      0.04460        -0.451293     -0.659565      0.495887
Li	      3.87582      1.83905     -1.84663         0.251512     -0.276540     -0.028687
Li	      3.82753      5.64340     -1.96454        -0.005877      1.070195     -0.001614
Ti	      3.85068      3.72159     -0.01785         1.332180      1.283043      1.977156
Ti	      3.85540      0.06458     -3.74709         0.524647     -2.751186     -2.283171
Ti	      1.92751      3.68657     -1.93795        -1.493300      0.923460      0.041451
Ti	      3.85256      3.76042     -3.79416         1.744177      1.398965     -2.475419
O	      1.92219      1.84122     -1.90770        -0.759650     -2.262691      0.090033
O	      3.85143      3.74080     -1.90600         1.531368      0.569889     -0.043584
O	      1.93451      3.74465     -3.79991        -2.172997      0.347104     -3.171551
O	      3.84198      1.87242     -0.01571         0.830514     -1.379403      1.300233
O	      3.84890      0.00714     -1.88531         1.156570     -1.666506      1.493475
O	      1.93936      3.76088     -0.06193        -2.070524      0.572419      3.298470
O	      3.86079      1.91017     -3.77805        -0.245383     -0.325996     -0.981340
O	      1.92205      5.57557     -1.85381        -0.036676      3.241012     -0.341768
