# total energy = -117.85390700 eV
 
CRYSTAL
PRIMVEC
2.020967 3.926846 1.972003 
4.044130 -1.952538 -1.995577 
0.020367 3.933899 -3.978583 
PRIMCOORD
16 1
Li	      1.92405      3.73241      1.83899        -0.114531     -0.066899      0.532035
Li	      1.95860      1.92473      0.04506        -0.378951     -0.552632      0.419366
Li	      3.91651      1.85836     -1.86602         0.208048     -0.241672     -0.022566
Li	      3.86771      5.70265     -1.98516        -0.011149      0.912791      0.002824
Ti	      3.89111      3.76066     -0.01804         1.079565      1.051993      1.626392
Ti	      3.89587      0.06526     -3.78643         0.502778     -2.295206     -1.902133
Ti	      1.94775      3.72528     -1.95829        -1.268070      0.771396      0.057485
Ti	      3.89301      3.79990     -3.83399         1.466397      1.104559     -2.078449
O	      1.94237      1.86055     -1.92773        -0.625491     -1.899177      0.081186
O	      3.89186      3.78007     -1.92601         1.252338      0.509501     -0.043577
O	      1.95482      3.78396     -3.83981        -1.827655      0.301738     -2.662187
O	      3.88232      1.89207     -0.01587         0.711854     -1.111580      1.118101
O	      3.88931      0.00722     -1.90511         0.999506     -1.454237      1.220808
O	      1.95972      3.80036     -0.06258        -1.724017      0.472795      2.804973
O	      3.90133      1.93022     -3.81772        -0.243088     -0.267278     -0.855313
O	      1.94223      5.63411     -1.87327        -0.027535      2.763907     -0.298945
