# total energy = -118.58444994 eV
 
CRYSTAL
PRIMVEC
2.031493 3.947299 1.982274 
4.065193 -1.962708 -2.005970 
0.020473 3.954388 -3.999305 
PRIMCOORD
16 1
Li	      1.94415      3.77139      1.85819        -0.094144     -0.053585      0.439719
Li	      1.97905      1.94483      0.04554        -0.312389     -0.453280      0.351121
Li	      3.95742      1.87777     -1.88551         0.168303     -0.207553     -0.016751
Li	      3.90810      5.76221     -2.00590        -0.016220      0.770793      0.010053
Ti	      3.93175      3.79994     -0.01823         0.858558      0.850784      1.312355
Ti	      3.93656      0.06594     -3.82597         0.467508     -1.878131     -1.558639
Ti	      1.96809      3.76419     -1.97874        -1.052839      0.633017      0.067712
Ti	      3.93367      3.83958     -3.87403         1.217718      0.857191     -1.715185
O	      1.96265      1.87998     -1.94786        -0.507627     -1.568843      0.071750
O	      3.93251      3.81955     -1.94612         1.001260      0.446498     -0.044793
O	      1.97524      3.82348     -3.87991        -1.508526      0.255324     -2.196599
O	      3.92286      1.91184     -0.01604         0.600367     -0.881071      0.945273
O	      3.92993      0.00729     -1.92501         0.847082     -1.245640      0.984805
O	      1.98019      3.84005     -0.06323        -1.415073      0.384105      2.344024
O	      3.94207      1.95038     -3.85759        -0.236503     -0.225490     -0.733347
O	      1.96251      5.69295     -1.89283        -0.017475      2.315881     -0.261498
