# total energy = -119.67347569 eV
 
CRYSTAL
PRIMVEC
2.052545 3.988203 2.002815 
4.107319 -1.983047 -2.026758 
0.020685 3.995366 -4.040748 
PRIMCOORD
16 1
Li	      1.98465      3.84996      1.89690        -0.061277     -0.024457      0.285239
Li	      2.02028      1.98535      0.04648        -0.203065     -0.284980      0.232568
Li	      4.03986      1.91689     -1.92479         0.100939     -0.142518     -0.008015
Li	      3.98952      5.88225     -2.04768        -0.019566      0.506929      0.014030
Ti	      4.01366      3.87910     -0.01861         0.494720      0.520188      0.787329
Ti	      4.01857      0.06731     -3.90568         0.366602     -1.158541     -0.972158
Ti	      2.00909      3.84260     -2.01996        -0.675965      0.387085      0.074685
Ti	      4.01561      3.91958     -3.95474         0.789771      0.473950     -1.086873
O	      2.00354      1.91915     -1.98845        -0.305644     -0.990390      0.053307
O	      4.01443      3.89912     -1.98667         0.593907      0.315255     -0.034468
O	      2.01639      3.90313     -3.96074        -0.951785      0.175815     -1.401238
O	      4.00459      1.95166     -0.01637         0.395102     -0.507502      0.635541
O	      4.01180      0.00744     -1.96511         0.564997     -0.864503      0.589928
O	      2.02144      3.92005     -0.06455        -0.883649      0.240342      1.523390
O	      4.02420      1.99101     -3.93795        -0.190428     -0.160314     -0.507399
O	      2.00340      5.81155     -1.93227        -0.014659      1.513642     -0.185865
