# total energy = -120.32997875 eV
 
CRYSTAL
PRIMVEC
2.073597 4.029108 2.023357 
4.149446 -2.003386 -2.047545 
0.020897 4.036344 -4.082192 
PRIMCOORD
16 1
Li	      2.02557      3.92934      1.93601        -0.036196     -0.008781      0.157852
Li	      2.06194      2.02628      0.04744        -0.107069     -0.150121      0.129306
Li	      4.12315      1.95641     -1.96447         0.053969     -0.079446     -0.006040
Li	      4.07178      6.00353     -2.08990        -0.017236      0.276515      0.010472
Ti	      4.09641      3.95908     -0.01899         0.218810      0.272123      0.398363
Ti	      4.10142      0.06870     -3.98620         0.266122     -0.575240     -0.508512
Ti	      2.05051      3.92183     -2.06161        -0.390530      0.171764      0.059431
Ti	      4.09841      4.00039     -4.03628         0.445543      0.205780     -0.582951
O	      2.04485      1.95872     -2.02944        -0.153808     -0.533439      0.034884
O	      4.09720      3.97951     -2.02763         0.295901      0.188708     -0.019849
O	      2.05796      3.98361     -4.04240        -0.499878      0.096783     -0.750535
O	      4.08716      1.99190     -0.01671         0.223261     -0.239909      0.356412
O	      4.09451      0.00759     -2.00563         0.302006     -0.497925      0.292535
O	      2.06312      4.00087     -0.06588        -0.453073      0.129756      0.821330
O	      4.10717      2.03206     -4.01914        -0.129644     -0.085518     -0.295143
O	      2.04471      5.93137     -1.97211        -0.018179      0.828949     -0.097555
