# total energy = -91.57233620 eV
 
CRYSTAL
PRIMVEC
-0.000002 2.053562 2.053555 
8.228608 -0.000039 0.000029 
-0.000020 4.250838 -4.250941 
PRIMCOORD
16 1
Li	      2.05737      2.16424     -0.11317        -0.001962     -0.008462      0.012972
Li	      3.98327      4.17800     -0.07460        -0.002486      0.000867     -0.001504
Li	      0.13087      4.17799     -0.07303         0.002875     -0.001378      0.000814
Li	      2.05675      4.13923     -2.08702         0.002522      0.008228     -0.010054
Mn	      0.10409      6.30363     -2.19803         0.074715      0.012074     -0.012826
Mn	      4.01028      2.05359      2.05221        -0.074342     -0.014278      0.013071
Ni	      6.17172      4.17184     -2.11964        -0.004662      0.003986     -0.005188
Ni	      6.17140      2.13163     -0.07938         0.004276     -0.004308      0.003322
O	      6.17170      4.17851     -0.07277        -0.000530     -0.000090      0.000544
O	      8.21683      4.35113     -2.29909         0.092381      0.014938     -0.014870
O	      6.17190      2.05310      2.05275        -0.000952      0.000228      0.000051
O	      8.21687      1.95260      0.09955         0.091079     -0.023248      0.023450
O	      2.05707      4.17848     -0.07322         0.000389      0.000037      0.001259
O	      4.12623      4.35092     -2.29874        -0.091153      0.024646     -0.024538
O	      2.05698      2.05323      2.05255         0.000423     -0.000167      0.000731
O	      4.12626      1.95243      0.09986        -0.092574     -0.013073      0.012767
