# total energy = -120.51778216 eV
 
CRYSTAL
PRIMVEC
2.084123 4.049560 2.033628 
4.170509 -2.013555 -2.057938 
0.021003 4.056833 -4.102914 
PRIMCOORD
16 1
Li	      2.04619      3.96933      1.95572        -0.028490     -0.004637      0.098872
Li	      2.08292      2.04691      0.04793        -0.061168     -0.092568      0.082385
Li	      4.16512      1.97632     -1.98447         0.034087     -0.045840     -0.001484
Li	      4.11322      6.06463     -2.11118        -0.013970      0.167893      0.008011
Ti	      4.13810      3.99938     -0.01918         0.108913      0.173428      0.248012
Ti	      4.14317      0.06939     -4.02678         0.215095     -0.330431     -0.318304
Ti	      2.07138      3.96175     -2.08260        -0.278372      0.077968      0.048381
Ti	      4.14012      4.04110     -4.07736         0.302267      0.109717     -0.368872
O	      2.06567      1.97866     -2.05010        -0.090982     -0.343449      0.023226
O	      4.13890      4.02002     -2.04827         0.178794      0.124088     -0.014773
O	      2.07891      4.02416     -4.08355        -0.296411      0.064520     -0.477071
O	      4.12876      2.01218     -0.01688         0.145027     -0.142242      0.231204
O	      4.13619      0.00767     -2.02604         0.174440     -0.324696      0.175184
O	      2.08412      4.04159     -0.06655        -0.264436      0.088244      0.510384
O	      4.14897      2.05274     -4.06005        -0.095659     -0.046881     -0.194985
O	      2.06551      5.99174     -1.99218        -0.029136      0.524886     -0.050171
