# total energy = -120.62207124 eV
 
CRYSTAL
PRIMVEC
2.094648 4.070013 2.043899 
4.191572 -2.023725 -2.068332 
0.021109 4.077322 -4.123635 
PRIMCOORD
16 1
Li	      2.06691      4.00953      1.97552        -0.019612     -0.002624      0.045565
Li	      2.10402      2.06763      0.04841        -0.024542     -0.040550      0.039055
Li	      4.20730      1.99634     -2.00456         0.014841     -0.013945     -0.001946
Li	      4.15487      6.12605     -2.13256        -0.009088      0.069996      0.006081
Ti	      4.18001      4.03987     -0.01937         0.013723      0.087506      0.111668
Ti	      4.18512      0.07010     -4.06755         0.155389     -0.114247     -0.156652
Ti	      2.09236      4.00187     -2.10369        -0.177253     -0.003406      0.036300
Ti	      4.18205      4.08203     -4.11865         0.176854      0.036750     -0.171322
O	      2.08658      1.99869     -2.07086        -0.041398     -0.176303      0.011276
O	      4.18082      4.06072     -2.06901         0.083460      0.065444     -0.007638
O	      2.09996      4.06490     -4.12490        -0.111828      0.027085     -0.228447
O	      4.17056      2.03255     -0.01705         0.069714     -0.062258      0.112269
O	      4.17807      0.00775     -2.04656         0.057230     -0.155825      0.081648
O	      2.10522      4.08252     -0.06723        -0.098901      0.050668      0.225303
O	      4.19099      2.07353     -4.10116        -0.048054     -0.011680     -0.096096
O	      2.08643      6.05242     -2.01236        -0.040536      0.243390     -0.007064
