# total energy = -120.60741282 eV
 
CRYSTAL
PRIMVEC
2.115700 4.110917 2.064440 
4.233698 -2.044064 -2.089119 
0.021322 4.118300 -4.165079 
PRIMCOORD
16 1
Li	      2.10866      4.09053      2.01543        -0.006504     -0.003373     -0.050613
Li	      2.14652      2.10940      0.04939         0.044227      0.048025     -0.035100
Li	      4.29229      2.03667     -2.04506        -0.002970      0.054560     -0.008329
Li	      4.23881      6.24980     -2.17564         0.000749     -0.117084     -0.004184
Ti	      2.14875      0.01057     -2.08421        -0.133661     -0.045188     -0.112565
Ti	      4.26967      0.07152     -4.14972         0.021756      0.230435      0.082827
Ti	      2.13462      4.08271     -2.14618        -0.013169     -0.123833      0.016047
Ti	      4.26653      4.16449     -4.20186        -0.023591     -0.053082      0.173014
O	      2.12874      2.03907     -2.11269         0.020263      0.094271     -0.003544
O	      4.26527      4.14276     -2.11081        -0.063012     -0.062143      0.010821
O	      2.14239      4.14702     -4.20823         0.209650     -0.041912      0.171909
O	      4.25482      2.07361     -0.01740        -0.066631      0.043330     -0.107439
O	      4.26247      0.00791     -2.08790        -0.168644      0.171257     -0.031813
O	      2.14775      4.16500     -0.06858         0.183946     -0.015871     -0.261035
O	      4.27565      2.11542     -4.18401         0.061775      0.067361      0.095156
O	      2.12858      6.17469     -2.05301        -0.064184     -0.246753      0.064847
