# total energy = -120.33772701 eV
 
CRYSTAL
PRIMVEC
2.136752 4.151822 2.084982 
4.275825 -2.064403 -2.109907 
0.021534 4.159278 -4.206523 
PRIMCOORD
16 1
Li	      0.01408      0.02051     -0.02925        -0.003307     -0.019593     -0.142785
Li	      2.18945      2.15159      0.05037         0.094210      0.115217     -0.095472
Li	      4.37813      2.07740     -2.08596        -0.013463      0.128116     -0.012169
Li	      2.18683      2.22297     -4.30413         0.007192     -0.279769     -0.011548
Ti	      2.21299      0.05210     -2.10514        -0.227805     -0.140390     -0.295288
Ti	      0.07924      2.13735     -2.12281        -0.134121      0.480940      0.235539
Ti	      2.17732      4.16436     -2.18910         0.103545     -0.190707      0.002447
Ti	      4.35186      4.24778     -4.28589        -0.167286     -0.072132      0.462245
O	      2.17131      2.07985     -2.15494         0.038746      0.284256     -0.024621
O	      4.35058      4.22561     -2.15302        -0.148161     -0.191288      0.021462
O	      2.18523      4.22996     -4.29239         0.486122     -0.105058      0.479991
O	      4.33991      2.11509     -0.01775        -0.180379      0.091233     -0.307963
O	      4.34772      0.00807     -2.12966        -0.366467      0.471904     -0.076797
O	      2.19070      4.24829     -0.06996         0.411030     -0.063656     -0.655979
O	      4.36116      2.15772     -4.26769         0.200877      0.151027      0.276963
O	      2.17115      6.29818     -2.09407        -0.100731     -0.660100      0.143976
