# total energy = -120.12182406 eV
 
CRYSTAL
PRIMVEC
2.147278 4.172274 2.095253 
4.296888 -2.074572 -2.120300 
0.021640 4.179767 -4.227244 
PRIMCOORD
16 1
Li	      0.02480      0.04127     -0.01921        -0.003327     -0.029171     -0.186998
Li	      2.21107      2.17283      0.05087         0.120237      0.142722     -0.121387
Li	      4.42138      2.09792     -2.10656        -0.015149      0.161450     -0.014718
Li	      2.21901      2.26548     -4.33632         0.008691     -0.356795     -0.015883
Ti	      2.24542      0.07316     -2.11562        -0.262420     -0.177627     -0.381617
Ti	      0.10119      2.14824     -2.15422        -0.220469      0.568256      0.274551
Ti	      2.19882      4.20550     -2.21073         0.146215     -0.195490      0.012015
Ti	      4.39484      4.28972     -4.32822        -0.213373     -0.053493      0.587368
O	      2.19275      2.10039     -2.17623         0.027539      0.349174     -0.036464
O	      4.39354      4.26735     -2.17429        -0.175360     -0.251982      0.015559
O	      2.20681      4.27174     -4.33478         0.621079     -0.134918      0.602150
O	      4.38277      2.13597     -0.01792        -0.236479      0.093408     -0.399904
O	      4.39066      0.00815     -2.15069        -0.462205      0.614863     -0.069326
O	      2.21234      4.29025     -0.07065         0.508879     -0.085947     -0.815490
O	      4.40423      2.17903     -4.30984         0.285420      0.195379      0.371938
O	      2.19260      6.36038     -2.11475        -0.129277     -0.839828      0.178206
