# total energy = -119.85849771 eV
 
CRYSTAL
PRIMVEC
2.157804 4.192726 2.105524 
4.317951 -2.084742 -2.130694 
0.021746 4.200256 -4.247966 
PRIMCOORD
16 1
Li	      0.03562      0.06223     -0.00908        -0.008276     -0.044997     -0.234609
Li	      2.23281      2.19419      0.05137         0.141882      0.167563     -0.146857
Li	      4.46483      2.11854     -2.12727        -0.017360      0.195992     -0.016938
Li	      2.25139      2.30830     -4.36861         0.013262     -0.427424     -0.020260
Ti	      2.27807      0.09443     -2.12609        -0.284964     -0.210822     -0.470671
Ti	      0.12335      2.15913     -2.18584        -0.312171      0.641490      0.299815
Ti	      2.22044      4.24682     -2.23245         0.181265     -0.187799      0.026090
Ti	      4.43803      4.33189     -4.37076        -0.244829     -0.022305      0.705308
O	      2.21430      2.12103     -2.19761         0.012523      0.397035     -0.045066
O	      4.43673      4.30928     -2.19565        -0.194178     -0.317779      0.017988
O	      2.22850      4.31372     -4.37738         0.741060     -0.167997      0.704483
O	      4.42585      2.15697     -0.01810        -0.286831      0.090813     -0.489203
O	      4.43381      0.00822     -2.17183        -0.554155      0.755393     -0.045069
O	      2.23408      4.33242     -0.07134         0.593818     -0.098879     -0.955452
O	      4.44752      2.20045     -4.35220         0.368427      0.236251      0.463859
O	      2.21414      6.42289     -2.13553        -0.149473     -1.006535      0.206583
