# total energy = -118.83071889 eV
 
CRYSTAL
PRIMVEC
2.189381 4.254083 2.136336 
4.381141 -2.115250 -2.161875 
0.022064 4.261723 -4.310131 
PRIMCOORD
16 1
Li	      0.06871      0.12631      0.02191        -0.024462     -0.112735     -0.396875
Li	      2.29863      2.25888      0.05289         0.189844      0.215371     -0.206744
Li	      4.59646      2.18099     -2.18998        -0.001397      0.299853     -0.035503
Li	      2.34981      2.43861     -4.46615         0.013417     -0.616197     -0.032957
Ti	      2.37727      0.15947     -2.15751        -0.282696     -0.286789     -0.716673
Ti	      0.19110      2.19183     -2.28192        -0.653925      0.685095      0.214627
Ti	      2.28590      4.37203     -2.29827         0.263921     -0.038400      0.172395
Ti	      4.56888      4.45960     -4.49962        -0.278641      0.179077      1.006851
O	      2.27959      2.18357     -2.26241        -0.108007      0.382273     -0.081196
O	      4.56753      4.43633     -2.26039        -0.216576     -0.491900      0.014104
O	      2.29420      4.44090     -4.50644         1.081696     -0.286655      0.847668
O	      4.55633      2.22056     -0.01863        -0.423757      0.043264     -0.714141
O	      4.56454      0.00847     -2.23586        -0.800990      1.159150      0.119596
O	      2.29995      4.46015     -0.07344         0.804205     -0.097813     -1.220462
O	      4.57864      2.26533     -4.48051         0.682607      0.370376      0.751197
O	      2.27942      6.61225     -2.19849        -0.245239     -1.403969      0.278113
