# total energy = -118.42948366 eV
 
CRYSTAL
PRIMVEC
2.199907 4.274536 2.146607 
4.402204 -2.125419 -2.172268 
0.022170 4.282213 -4.330853 
PRIMCOORD
16 1
Li	      0.07995      0.14808      0.03245        -0.035861     -0.140860     -0.460214
Li	      2.32079      2.28066      0.05340         0.204575      0.226077     -0.223994
Li	      4.64076      2.20202     -2.21109         0.009713      0.335484     -0.042961
Li	      2.38303      2.48267     -4.49887         0.009389     -0.675680     -0.032837
Ti	      2.41076      0.18156     -2.16798        -0.267426     -0.272697     -0.775515
Ti	      0.21411      2.20274     -2.31436        -0.774049      0.636284      0.157672
Ti	      2.30793      4.41417     -2.32042         0.288682      0.033732      0.233192
Ti	      4.61292      4.50259     -4.54299        -0.278716      0.280538      1.106431
O	      2.30156      2.20461     -2.28421        -0.151989      0.341752     -0.107322
O	      4.61155      4.47909     -2.28217        -0.230821     -0.552039      0.016168
O	      2.31632      4.48370     -4.54987         1.173863     -0.331607      0.844803
O	      4.60025      2.24196     -0.01881        -0.463217     -0.003682     -0.784856
O	      4.60853      0.00855     -2.25741        -0.870303      1.288084      0.192602
O	      2.32211      4.50314     -0.07415         0.844485     -0.089530     -1.265744
O	      4.62277      2.28716     -4.52370         0.801329      0.424530      0.851620
O	      2.30139      6.67598     -2.21968        -0.259654     -1.500388      0.290955
