# total energy = -118.00231649 eV
 
CRYSTAL
PRIMVEC
2.210433 4.294988 2.156878 
4.423267 -2.135589 -2.182662 
0.022276 4.302702 -4.351575 
PRIMCOORD
16 1
Li	      0.09129      0.17005      0.04307        -0.048013     -0.173361     -0.527554
Li	      2.34305      2.30253      0.05391         0.220774      0.236312     -0.239745
Li	      4.68528      2.22314     -2.23230         0.017534      0.373405     -0.051317
Li	      2.41646      2.52703     -4.53171         0.005906     -0.733336     -0.035979
Ti	      2.44446      0.20385     -2.17845        -0.265910     -0.268255     -0.870393
Ti	      0.23732      2.21365     -2.34700        -0.872972      0.631421      0.122956
Ti	      2.33007      4.45651     -2.34268         0.298019      0.063859      0.276224
Ti	      4.65716      4.54578     -4.58656        -0.256599      0.369012      1.212386
O	      2.32364      2.22576     -2.30613        -0.186280      0.336114     -0.125333
O	      4.65579      4.52205     -2.30406        -0.227363     -0.609354      0.020669
O	      2.33853      4.52671     -4.59352         1.250875     -0.366365      0.875194
O	      4.64438      2.26347     -0.01899        -0.503397     -0.053073     -0.852996
O	      4.65274      0.00863     -2.27906        -0.935881      1.408842      0.269057
O	      2.34439      4.54633     -0.07486         0.870456     -0.072987     -1.336038
O	      4.66712      2.30910     -4.56709         0.903077      0.466188      0.955457
O	      2.32347      6.74003     -2.24097        -0.270227     -1.608421      0.307410
