# total energy = -116.79104346 eV
 
CRYSTAL
PRIMVEC
1.960965 3.999400 1.961105 
1.944562 0.024658 -5.916626 
-2.010830 4.048830 -2.010873 
PRIMCOORD
16 1
Li	     -1.84944      3.86679     -1.98622        -0.561565      0.140146     -0.002521
Li	      0.01758      5.77418     -1.98021        -0.343314      0.579729      0.193612
Li	     -0.10346      3.86607     -3.73730        -0.748613      0.122271     -0.627626
Li	      1.76468      5.77489     -3.73052         0.290902      0.794679     -0.250423
Ti	      1.78980      3.86270     -5.62630         1.301224     -0.490224     -2.391172
Ti	     -0.08524      1.93370     -1.83106        -1.144614     -1.816046     -0.051945
Ti	      1.91965      3.83984     -1.96640         2.433999      0.808019      1.810931
Ti	      1.90232      1.93531     -3.82088         1.894534     -1.783866     -2.461526
O	      1.80659      1.95137     -1.92370         2.713909     -2.970473      2.133206
O	      0.02828      3.82189     -1.87261        -2.582485      2.041073     -0.227505
O	      0.00803      1.91156     -3.72286        -1.901870      0.053937     -2.700121
O	     -0.00637      1.89578     -0.01625        -0.390014     -2.066485      2.977325
O	      1.82694      3.86224     -0.07372         0.943617      0.131132      3.089951
O	     -0.05705      3.85480     -5.67935        -1.427094     -0.109956     -1.191372
O	     -0.02854      5.78574     -0.03828        -1.090381      1.948025      0.844043
O	      1.84105      3.87830     -3.78049         0.611766      2.618037     -1.144858
