# total energy = -118.47275145 eV
 
CRYSTAL
PRIMVEC
1.981498 4.041278 1.981640 
1.964924 0.024916 -5.978580 
-2.031886 4.091226 -2.031930 
PRIMCOORD
16 1
Li	     -1.88837      3.94820     -2.02804        -0.377713      0.105973      0.004011
Li	      0.01794      5.89574     -2.02190        -0.268445      0.415479      0.163617
Li	     -0.10564      3.94745     -3.81597        -0.535736      0.067520     -0.470842
Li	      1.80183      5.89646     -3.80906         0.228179      0.572138     -0.189191
Ti	      1.82748      3.94401     -5.74474         0.865773     -0.531843     -1.635845
Ti	     -0.08704      1.97441     -1.86961        -0.729427     -1.219546      0.050210
Ti	      1.96006      3.92068     -2.00779         1.655749      0.411539      1.240889
Ti	      1.94237      1.97606     -3.90132         1.263148     -1.100231     -1.787372
O	      1.84462      1.99244     -1.96420         1.898829     -2.114964      1.508273
O	      0.02888      3.90236     -1.91203        -1.810404      1.425133     -0.228034
O	      0.00820      1.95180     -3.80123        -1.312295      0.081642     -1.891139
O	     -0.00651      1.93569     -0.01659        -0.311356     -1.580570      2.066818
O	      1.86540      3.94354     -0.07527         0.704757      0.113749      2.207048
O	     -0.05826      3.93596     -5.79891        -0.936888     -0.088290     -0.896524
O	     -0.02914      5.90755     -0.03908        -0.789343      1.525212      0.664981
O	      1.87981      3.95994     -3.86008         0.455172      1.917058     -0.806902
