# total energy = -119.11220438 eV
 
CRYSTAL
PRIMVEC
1.991765 4.062218 1.991908 
1.975104 0.025045 -6.009557 
-2.042414 4.112424 -2.042458 
PRIMCOORD
16 1
Li	     -1.90799      3.98922     -2.04911        -0.299088      0.091500      0.003944
Li	      0.01813      5.95699     -2.04290        -0.227509      0.336311      0.143973
Li	     -0.10674      3.98847     -3.85562        -0.441236      0.048551     -0.394345
Li	      1.82055      5.95772     -3.84864         0.193809      0.470674     -0.160784
Ti	      1.84647      3.98499     -5.80443         0.682902     -0.526973     -1.311868
Ti	     -0.08794      1.99492     -1.88903        -0.564616     -0.959561      0.091854
Ti	      1.98042      3.96141     -2.02866         1.328773      0.263492      0.987502
Ti	      1.96254      1.99658     -3.94185         1.001716     -0.819189     -1.486325
O	      1.86378      2.01314     -1.98461         1.542535     -1.734768      1.230755
O	      0.02917      3.94290     -1.93189        -1.468873      1.153835     -0.218230
O	      0.00828      1.97207     -3.84072        -1.056571      0.086112     -1.537801
O	     -0.00657      1.95581     -0.01677        -0.272871     -1.339309      1.666751
O	      1.88478      3.98451     -0.07606         0.584834      0.106376      1.810672
O	     -0.05886      3.97685     -5.85916        -0.735274     -0.077402     -0.754898
O	     -0.02944      5.96892     -0.03949        -0.647518      1.303406      0.577565
O	      1.89933      4.00108     -3.90019         0.378986      1.596946     -0.648766
