# total energy = -119.62938932 eV
 
CRYSTAL
PRIMVEC
2.002032 4.083157 2.002176 
1.985285 0.025174 -6.040534 
-2.052942 4.133622 -2.052986 
PRIMCOORD
16 1
Li	     -1.92771      4.03045     -2.07028        -0.231018      0.073189      0.006320
Li	      0.01832      6.01856     -2.06402        -0.191474      0.270715      0.123600
Li	     -0.10785      4.02969     -3.89547        -0.352001      0.030728     -0.322332
Li	      1.83936      6.01930     -3.88841         0.160436      0.377774     -0.131034
Ti	      1.86555      4.02618     -5.86442         0.517005     -0.490603     -1.020733
Ti	     -0.08885      2.01554     -1.90855        -0.429446     -0.730454      0.118350
Ti	      2.00089      4.00236     -2.04962         1.043632      0.151483      0.762413
Ti	      1.98283      2.01722     -3.98259         0.773665     -0.594614     -1.203131
O	      1.88305      2.03395     -2.00512         1.216634     -1.383686      0.972037
O	      0.02948      3.98365     -1.95186        -1.156404      0.910062     -0.199478
O	      0.00837      1.99246     -3.88042        -0.824705      0.085886     -1.216029
O	     -0.00664      1.97602     -0.01694        -0.233174     -1.100196      1.308906
O	      1.90427      4.02570     -0.07684         0.472989      0.093378      1.442358
O	     -0.05947      4.01795     -5.91972        -0.564856     -0.064899     -0.622520
O	     -0.02974      6.03061     -0.03990        -0.513421      1.083674      0.489549
O	      1.91897      4.04244     -3.94050         0.312139      1.287564     -0.508276
