# total energy = -120.03395484 eV
 
CRYSTAL
PRIMVEC
2.012299 4.104096 2.012443 
1.995466 0.025304 -6.071512 
-2.063470 4.154820 -2.063514 
PRIMCOORD
16 1
Li	     -1.94754      4.07190     -2.09157        -0.170857      0.059362      0.006702
Li	      0.01851      6.08045     -2.08524        -0.152541      0.206491      0.101861
Li	     -0.10896      4.07113     -3.93553        -0.267689      0.016355     -0.253753
Li	      1.85828      6.08119     -3.92839         0.126948      0.293980     -0.101622
Ti	      1.88473      4.06758     -5.92472         0.368675     -0.424999     -0.758310
Ti	     -0.08976      2.03626     -1.92818        -0.322838     -0.533753      0.132580
Ti	      2.02147      4.04351     -2.07070         0.796760      0.072422      0.562407
Ti	      2.00322      2.03796     -4.02355         0.579841     -0.420084     -0.941547
O	      1.90241      2.05487     -2.02574         0.924055     -1.051852      0.736865
O	      0.02978      4.02461     -1.97193        -0.870426      0.688024     -0.173194
O	      0.00845      2.01295     -3.92032        -0.620500      0.076648     -0.919882
O	     -0.00671      1.99634     -0.01711        -0.191196     -0.865385      0.983313
O	      1.92385      4.06709     -0.07763         0.365771      0.080669      1.100941
O	     -0.06008      4.05927     -5.98059        -0.421005     -0.054191     -0.493565
O	     -0.03005      6.09263     -0.04031        -0.385143      0.861327      0.399814
O	      1.93870      4.08401     -3.98102         0.240144      0.994986     -0.382612
