# total energy = -120.33448896 eV
 
CRYSTAL
PRIMVEC
2.022566 4.125035 2.022711 
2.005647 0.025433 -6.102489 
-2.073998 4.176018 -2.074042 
PRIMCOORD
16 1
Li	     -1.96746      4.11355     -2.11297        -0.115616      0.043624      0.005914
Li	      0.01869      6.14265     -2.10657        -0.116052      0.146491      0.076997
Li	     -0.11007      4.11278     -3.97579        -0.193242      0.007013     -0.188226
Li	      1.87729      6.14340     -3.96858         0.094093      0.213516     -0.073612
Ti	      1.90401      4.10919     -5.98533         0.239248     -0.341386     -0.520999
Ti	     -0.09068      2.05709     -1.94791        -0.234236     -0.363076      0.132220
Ti	      2.04215      4.08488     -2.09188         0.579762      0.020894      0.382254
Ti	      2.02371      2.05881     -4.06471         0.414636     -0.276887     -0.698799
O	      1.92187      2.07589     -2.04646         0.655105     -0.746641      0.524865
O	      0.03008      4.06579     -1.99211        -0.616954      0.483396     -0.141259
O	      0.00854      2.03354     -3.96042        -0.437508      0.057843     -0.648281
O	     -0.00677      2.01676     -0.01729        -0.147728     -0.633323      0.686239
O	      1.94353      4.10870     -0.07843         0.266448      0.066421      0.786890
O	     -0.06070      4.10079     -6.04177        -0.300052     -0.044122     -0.366216
O	     -0.03036      6.15495     -0.04072        -0.266368      0.641160      0.306159
O	      1.95853      4.12579     -4.02175         0.178463      0.725076     -0.264145
