# total energy = -120.53839877 eV
 
CRYSTAL
PRIMVEC
2.032832 4.145975 2.032978 
2.015828 0.025562 -6.133466 
-2.084526 4.197216 -2.084570 
PRIMCOORD
16 1
Li	     -1.98748      4.15542     -2.13447        -0.070068      0.030030      0.002753
Li	      0.01889      6.20517     -2.12802        -0.077709      0.092473      0.053510
Li	     -0.11119      4.15464     -4.01626        -0.120781      0.002713     -0.122826
Li	      1.89639      6.20593     -4.00898         0.060688      0.135441     -0.047766
Ti	      1.92339      4.15102     -6.04625         0.127015     -0.242874     -0.308266
Ti	     -0.09161      2.07804     -1.96774        -0.161396     -0.220455      0.117681
Ti	      2.06293      4.12646     -2.11317         0.385933     -0.007324      0.220586
Ti	      2.04431      2.07977     -4.10608         0.277357     -0.161478     -0.475695
O	      1.94143      2.09702     -2.06729         0.411531     -0.465436      0.336371
O	      0.03039      4.10717     -2.01238        -0.384700      0.300968     -0.102377
O	      0.00862      2.05424     -4.00073        -0.279743      0.036659     -0.405803
O	     -0.00685      2.03729     -0.01746        -0.102646     -0.413244      0.420239
O	      1.96331      4.15052     -0.07922         0.175090      0.052031      0.497682
O	     -0.06132      4.14253     -6.10326        -0.199212     -0.030690     -0.242151
O	     -0.03067      6.21760     -0.04114        -0.159752      0.424286      0.211054
O	      1.97846      4.16778     -4.06268         0.118392      0.466898     -0.154991
