# total energy = -120.65345743 eV
 
CRYSTAL
PRIMVEC
2.043099 4.166914 2.043246 
2.026009 0.025691 -6.164443 
-2.095053 4.218414 -2.095099 
PRIMCOORD
16 1
Li	     -2.00761      4.19750     -2.15610        -0.029730      0.015323      0.002402
Li	      0.01908      6.26801     -2.14956        -0.040674      0.044954      0.031935
Li	     -0.11232      4.19671     -4.05693        -0.054309      0.002462     -0.061961
Li	      1.91560      6.26877     -4.04957         0.026844      0.066151     -0.019248
Ti	      1.94287      4.19305     -6.10748         0.025527     -0.136085     -0.110060
Ti	     -0.09253      2.09908     -1.98766        -0.100477     -0.097867      0.097187
Ti	      2.08382      4.16824     -2.13458         0.214786     -0.016132      0.071884
Ti	      2.06501      2.10083     -4.14766         0.159505     -0.065374     -0.263946
O	      1.96109      2.11825     -2.08823         0.185821     -0.204512      0.157130
O	      0.03070      4.14876     -2.03276        -0.171292      0.127062     -0.054760
O	      0.00871      2.07504     -4.04125        -0.129132      0.006478     -0.183699
O	     -0.00691      2.05792     -0.01764        -0.057323     -0.195464      0.177850
O	      1.98319      4.19255     -0.08002         0.079092      0.039461      0.225762
O	     -0.06193      4.18448     -6.16507        -0.113141     -0.010850     -0.126969
O	     -0.03098      6.28056     -0.04155        -0.055699      0.204413      0.112335
O	      1.99850      4.20999     -4.10382         0.060203      0.219981     -0.055843
