# total energy = -120.64245047 eV
 
CRYSTAL
PRIMVEC
2.063633 4.208792 2.063781 
2.046371 0.025949 -6.226397 
-2.116109 4.260810 -2.116155 
PRIMCOORD
16 1
Li	     -2.04817      4.28229     -2.19965         0.032337     -0.015357     -0.013872
Li	      0.01946      6.39463     -2.19299         0.028690     -0.040195     -0.020436
Li	     -0.11459      4.28149     -4.13888         0.064583      0.005450      0.049206
Li	      1.95430      6.39541     -4.13138        -0.040539     -0.065689      0.030464
Ti	      1.98212      4.27776     -6.23086        -0.142053      0.113865      0.236319
Ti	     -0.09440      2.14148     -2.02781        -0.026597      0.076499      0.041211
Ti	      2.12592      4.25245     -2.17770        -0.065920      0.019191     -0.188416
Ti	      2.10673      2.14326     -4.23145        -0.013226      0.065793      0.123636
O	      2.00071      2.16104     -2.13042        -0.205849      0.246269     -0.150885
O	      0.03132      4.23257     -2.07382         0.191285     -0.165978      0.057952
O	      0.00889      2.11696     -4.12289         0.124263     -0.069678      0.193210
O	     -0.00706      2.09949     -0.01800         0.032509      0.206861     -0.239612
O	      2.02325      4.27724     -0.08164        -0.087429      0.027910     -0.244728
O	     -0.06319      4.26901     -6.28961         0.018630      0.033208      0.102241
O	     -0.03160      6.40744     -0.04239         0.125404     -0.216675     -0.091177
O	      2.03887      4.29503     -4.18672        -0.036087     -0.221474      0.114888
