# total energy = -90.44405086 eV
 
CRYSTAL
PRIMVEC
-4.163288 0.000201 -0.000001 
0.000001 -0.000095 4.163524 
-0.000337 8.420572 -0.000147 
PRIMCOORD
16 1
Li	     -2.08003      2.31453      0.00017        -0.004422     -0.007017     -0.001129
Li	     -4.16325      4.20947      4.16329         0.001284      0.000577      0.000237
Li	     -2.08167      4.21053      2.08159         0.001397     -0.000732     -0.000206
Li	     -0.00035      6.10528      2.08121         0.002537      0.010221      0.002083
Mn	     -4.16263      8.42043      4.16329        -0.000294     -0.000195     -0.000159
Mn	     -2.08100      8.42030      2.08150         0.000161      0.000021      0.000330
Ni	     -2.08157      6.21008      4.16310         0.001175     -0.083471      0.000036
Ni	     -4.16200      2.21018      2.08187        -0.000611      0.082857     -0.000744
O	     -2.08035      1.90989      2.08182        -0.000657     -0.089179      0.000042
O	     -4.16308      4.14424      2.08164         0.000507      0.114368     -0.000327
O	     -2.08139      6.51018      2.08134         0.000476      0.087916      0.000188
O	     -4.16192      1.91012      0.00008        -0.000597     -0.088909     -0.000153
O	     -2.08150      4.27599      4.16329         0.000605     -0.114937      0.000285
O	     -4.16223      0.08655      2.08169        -0.001080     -0.117767     -0.000167
O	     -4.16307      6.51034      4.16313         0.000719      0.088310     -0.000182
O	     -2.08096      8.33365      4.16324        -0.001200      0.117938     -0.000133
