# total energy = -120.35246763 eV
 
CRYSTAL
PRIMVEC
2.084167 4.250671 2.084316 
2.066733 0.026207 -6.288351 
-2.137165 4.303207 -2.137211 
PRIMCOORD
16 1
Li	      0.04804      0.06473     -0.10643         0.073257     -0.046123     -0.026208
Li	      0.01985      6.52252     -2.23684         0.093127     -0.108300     -0.076104
Li	     -0.11688      4.36712     -4.22165         0.168178      0.021486      0.152235
Li	      1.99338      6.52332     -4.21401        -0.106777     -0.179917      0.075461
Ti	     -0.04497      4.33710     -0.06712        -0.253190      0.371368      0.532262
Ti	     -0.09629      2.18431     -2.06837         0.012775      0.169880     -0.045817
Ti	      2.16844      4.33749     -2.22125        -0.278988      0.105603     -0.408282
Ti	      2.14886      2.18613     -4.31608        -0.126370      0.161483      0.449675
O	      2.04072      2.20427     -2.17302        -0.525195      0.614166     -0.391438
O	      0.03194      4.31722     -2.11530         0.478175     -0.407663      0.185811
O	      0.00907      2.15930     -4.20534         0.333932     -0.165195      0.495696
O	     -0.00720      2.14148     -0.01836         0.116736      0.571546     -0.576277
O	      2.06372      4.36279     -0.08327        -0.233903      0.025898     -0.638434
O	     -0.06445      4.35439     -6.41540         0.104018      0.085466      0.330152
O	     -0.03224      6.53558     -0.04324         0.277883     -0.620421     -0.311524
O	      2.07965      4.38093     -4.27045        -0.133659     -0.599276      0.252792
