# total energy = -120.11571002 eV
 
CRYSTAL
PRIMVEC
2.094433 4.271610 2.094584 
2.076914 0.026336 -6.319328 
-2.147693 4.324405 -2.147739 
PRIMCOORD
16 1
Li	      0.03793      0.08667     -0.11806         0.084200     -0.057283     -0.037168
Li	      0.02005      6.58694     -2.25894         0.125808     -0.137199     -0.101352
Li	     -0.11803      4.41024     -4.26335         0.216535      0.031414      0.200552
Li	      2.01307      6.58775     -4.25563        -0.137572     -0.235600      0.102856
Ti	     -0.03519      4.38007     -0.09891        -0.290426      0.481751      0.665280
Ti	     -0.09724      2.20588     -2.08880         0.031386      0.199805     -0.096673
Ti	      2.18985      4.38033     -2.24319        -0.373788      0.157756     -0.505328
Ti	      2.17008      2.20772     -4.35870        -0.173856      0.212256      0.594063
O	      2.06088      2.22604     -2.19448        -0.655683      0.766348     -0.490537
O	      0.03226      4.35986     -2.13619         0.592390     -0.505428      0.247806
O	      0.00916      2.18063     -4.24688         0.423004     -0.216577      0.622120
O	     -0.00727      2.16263     -0.01854         0.158202      0.730067     -0.715825
O	      2.08410      4.40587     -0.08409        -0.300825      0.030803     -0.806267
O	     -0.06509      4.39740     -6.47876         0.136971      0.118363      0.439706
O	     -0.03255      6.60014     -0.04366         0.341563     -0.816314     -0.426149
O	      2.10019      4.42420     -4.31263        -0.177909     -0.760160      0.306916
