# total energy = -119.48528701 eV
 
CRYSTAL
PRIMVEC
2.114967 4.313489 2.115119 
2.097276 0.026595 -6.381283 
-2.168749 4.366801 -2.168795 
PRIMCOORD
16 1
Li	      0.01742      0.13119     -0.14165         0.100570     -0.076362     -0.061257
Li	      0.02044      6.71673     -2.30345         0.187977     -0.186503     -0.157342
Li	     -0.12036      4.49715     -4.34736         0.304890      0.058893      0.295045
Li	      2.05274      6.71755     -4.33947        -0.200847     -0.338542      0.151633
Ti	     -0.01532      4.46663     -0.16342        -0.339700      0.587996      0.854120
Ti	     -0.09916      2.24934     -2.12995         0.109073      0.304335     -0.193733
Ti	      2.23300      4.46664     -2.28739        -0.554397      0.298508     -0.662312
Ti	      2.21284      2.25122     -4.44458        -0.309879      0.314246      0.837884
O	      2.10149      2.26990     -2.23772        -0.886011      1.026235     -0.676395
O	      0.03290      4.44576     -2.17828         0.798939     -0.649955      0.385808
O	      0.00934      2.22359     -4.33056         0.589833     -0.344881      0.819315
O	     -0.00741      2.20524     -0.01891         0.246722      1.025753     -0.879609
O	      2.12516      4.49269     -0.08575        -0.450484      0.045780     -1.117308
O	     -0.06637      4.48404     -6.60642         0.202124      0.210717      0.664680
O	     -0.03320      6.73018     -0.04453         0.454766     -1.216234     -0.646518
O	      2.14157      4.51138     -4.39761        -0.253574     -1.059985      0.385989
