# total energy = -119.09992275 eV
 
CRYSTAL
PRIMVEC
2.125234 4.334428 2.125386 
2.107457 0.026724 -6.412260 
-2.179277 4.387999 -2.179324 
PRIMCOORD
16 1
Li	      0.00701      0.15377     -0.15361         0.104663     -0.089520     -0.070985
Li	      0.02064      6.78210     -2.32587         0.215157     -0.206113     -0.182730
Li	     -0.12153      4.54092     -4.38967         0.343834      0.075031      0.337634
Li	      2.07271      6.78293     -4.38171        -0.232078     -0.385618      0.173179
Ti	     -0.00523      4.51023     -0.19614        -0.367685      0.635107      0.956047
Ti	     -0.10012      2.27124     -2.15068         0.140121      0.334665     -0.233065
Ti	      2.25473      4.51011     -2.30965        -0.623372      0.366258     -0.750219
Ti	      2.23438      2.27313     -4.48784        -0.350082      0.369189      0.944144
O	      2.12194      2.29199     -2.25950        -0.986316      1.134898     -0.742622
O	      0.03321      4.48903     -2.19948         0.881971     -0.710850      0.453207
O	      0.00943      2.24523     -4.37270         0.660755     -0.411784      0.899846
O	     -0.00748      2.22670     -0.01909         0.291438      1.150540     -0.966064
O	      2.14585      4.53641     -0.08659        -0.514311      0.059955     -1.254965
O	     -0.06702      4.52768     -6.67071         0.224060      0.251768      0.778001
O	     -0.03352      6.79568     -0.04496         0.504162     -1.392447     -0.760751
O	      2.16241      4.55528     -4.44040        -0.292318     -1.181078      0.419344
