# total energy = -118.20517060 eV
 
CRYSTAL
PRIMVEC
2.145768 4.376306 2.145922 
2.127819 0.026982 -6.474214 
-2.200333 4.430395 -2.200380 
PRIMCOORD
16 1
Li	     -0.01412      0.19957     -0.17785         0.104458     -0.110808     -0.097037
Li	      0.02104      6.91378     -2.37103         0.273898     -0.239451     -0.239236
Li	     -0.12389      4.62908     -4.47490         0.415059      0.113644      0.415488
Li	      2.11296      6.91463     -4.46679        -0.294372     -0.475317      0.215390
Ti	      0.01522      4.59806     -0.26250        -0.409136      0.684996      1.151087
Ti	     -0.10207      2.31534     -2.19245         0.212241      0.381967     -0.299967
Ti	      2.29851      4.59769     -2.35449        -0.743113      0.483447     -0.938121
Ti	      2.27776      2.31727     -4.57498        -0.399600      0.507853      1.134651
O	      2.16314      2.33649     -2.30337        -1.152695      1.318353     -0.839199
O	      0.03386      4.57620     -2.24220         1.013739     -0.802616      0.590197
O	      0.00961      2.28882     -4.45761         0.791629     -0.569164      1.048407
O	     -0.00763      2.26994     -0.01946         0.374591      1.359615     -1.118683
O	      2.18751      4.62450     -0.08827        -0.650129      0.107511     -1.497803
O	     -0.06832      4.61560     -6.80024         0.253004      0.347053      1.014337
O	     -0.03417      6.92764     -0.04583         0.574167     -1.738644     -1.000074
O	      2.20440      4.64373     -4.52662        -0.363742     -1.368437      0.460564
