# total energy = -117.70248808 eV
 
CRYSTAL
PRIMVEC
2.156034 4.397246 2.156189 
2.138000 0.027111 -6.505191 
-2.210860 4.451593 -2.210908 
PRIMCOORD
16 1
Li	     -0.02483      0.22278     -0.19013         0.099032     -0.118442     -0.115225
Li	      0.02124      6.98011     -2.39377         0.299517     -0.252205     -0.265324
Li	     -0.12508      4.67349     -4.51783         0.448651      0.137897      0.451193
Li	      2.13323      6.98096     -4.50964        -0.321151     -0.516374      0.239996
Ti	      0.02560      4.64230     -0.29615        -0.422638      0.695402      1.237803
Ti	     -0.10305      2.33755     -2.21347         0.247908      0.395298     -0.330794
Ti	      2.32056      4.64179     -2.37708        -0.792206      0.538977     -1.032640
Ti	      2.29961      2.33950     -4.61887        -0.409674      0.577546      1.218292
O	      2.18389      2.35890     -2.32547        -1.226711      1.390550     -0.868530
O	      0.03419      4.62009     -2.26370         1.064819     -0.834994      0.657916
O	      0.00970      2.31078     -4.50037         0.844807     -0.651383      1.115817
O	     -0.00770      2.29171     -0.01965         0.417916      1.445242     -1.182353
O	      2.20850      4.66886     -0.08912        -0.713190      0.135002     -1.606408
O	     -0.06897      4.65987     -6.86547         0.259729      0.394794      1.128489
O	     -0.03450      6.99409     -0.04627         0.601888     -1.888386     -1.119100
O	      2.22555      4.68828     -4.57004        -0.398697     -1.448922      0.470868
