# total energy = -115.80991109 eV
 
CRYSTAL
PRIMVEC
1.985301 3.934016 1.985513 
1.984946 0.000032 -5.956216 
-1.985262 3.934003 -1.985543 
PRIMCOORD
16 1
Li	     -1.73245      3.73629     -2.04125        -0.636660      0.000594      0.126337
Li	      0.00178      5.60640     -1.88630        -0.338365      0.747359      0.388770
Li	     -0.15376      3.73637     -3.61708        -0.645459      0.004062     -0.809206
Li	      0.00209      1.86757     -1.88643        -0.338369     -0.748068      0.393511
Ti	      1.88609      5.60605     -3.77301         1.416366      2.190289      1.192550
Ti	      1.86880      3.73676     -5.64331         1.633345     -0.001751     -2.254753
Ti	      1.90456      3.73672     -1.90356         2.874952      0.004389      1.399821
Ti	      1.88607      1.86562     -3.77297         1.407801     -2.161833      1.188083
O	      0.03010      5.57202     -3.80399        -2.977341      0.551167      1.180358
O	      0.08922      3.73689     -1.79748        -3.117467     -0.001896      0.225386
O	      0.02987      1.90126     -3.80345        -2.973206     -0.550832      1.168645
O	      1.85611      1.83527     -5.62849         1.833138     -2.997400     -3.442748
O	      1.79798      3.73683     -0.09038         1.191279     -0.003088      4.561156
O	      0.00064      3.73654     -5.66031        -1.870488     -0.007851     -1.239727
O	      1.85635      5.63798     -5.62897         1.831118      2.995672     -3.426942
O	      1.88697      3.73643     -3.77371         0.709356     -0.020815     -0.651241
