# total energy = -91.22173543 eV
 
CRYSTAL
PRIMVEC
0.000006 2.067590 2.067856 
8.289171 -0.010651 0.010711 
-0.011140 4.214932 -4.215398 
PRIMCOORD
16 1
Li	      4.25125      4.17917     -0.04606        -0.013410     -0.020478      0.020732
Li	      4.23276      6.27574     -2.14245        -0.007749      0.024954     -0.025639
Li	      6.02330      2.15072     -0.08518        -0.039404      0.004571     -0.005496
Li	      8.16012      4.13877     -0.00623         0.018105     -0.011852      0.012514
Mn	      8.24334      6.26542     -2.13200         0.023443      0.020398     -0.021370
Mn	      2.17741      2.10751     -0.04186         0.132132      0.020243     -0.020888
Ni	      6.11719      4.12765     -2.06219        -0.052597      0.044417     -0.044377
Ni	      2.18056      4.15362     -2.08821         0.010690      0.023397     -0.024026
O	      6.25431      4.20846     -0.07531         0.013947     -0.115478      0.116359
O	      0.06581      4.32444     -2.25890        -0.045544      0.040872     -0.040022
O	      6.38065      6.22115     -2.08774         0.073737      0.062235     -0.062644
O	      0.11244      1.95526      0.11081        -0.019097     -0.037250      0.037101
O	      1.96103      4.14579     -0.01304        -0.027282     -0.106968      0.109049
O	      4.11536      4.22298     -2.15743         0.079027     -0.013542      0.013286
O	      1.96549      2.06631      2.06775        -0.098341      0.060508     -0.061009
O	      3.97959      2.08589     -0.02034        -0.047658      0.003972     -0.003570
