# total energy = -118.47788725 eV
 
CRYSTAL
PRIMVEC
2.016648 3.996132 2.016863 
2.016287 0.000032 -6.050262 
-2.016608 3.996119 -2.016894 
PRIMCOORD
16 1
Li	     -1.78759      3.85521     -2.10621        -0.339486     -0.001378      0.093055
Li	      0.00183      5.78485     -1.94634        -0.213795      0.437177      0.217288
Li	     -0.15865      3.85529     -3.73221        -0.396185      0.001527     -0.512090
Li	      0.00216      1.92701     -1.94647        -0.217092     -0.441046      0.220783
Ti	      1.94612      5.78448     -3.89310         0.728108      1.127647      0.626499
Ti	      1.92828      3.85570     -5.82293         0.976744      0.002577     -1.166123
Ti	      1.96518      3.85565     -1.96415         1.540961      0.006240      0.792558
Ti	      1.94610      1.92500     -3.89306         0.722589     -1.101761      0.622860
O	      0.03106      5.74937     -3.92507        -1.748671      0.288904      0.805565
O	      0.09206      3.85583     -1.85469        -1.869477     -0.005291      0.026022
O	      0.03082      1.96178     -3.92450        -1.746100     -0.293790      0.794053
O	      1.91519      1.89368     -5.80763         1.178995     -1.895221     -2.117038
O	      1.85521      3.85577     -0.09325         0.803199     -0.002223      2.909408
O	      0.00066      3.85547     -5.84047        -1.074695     -0.009178     -0.822729
O	      1.91544      5.81743     -5.80813         1.178199      1.899438     -2.111035
O	      1.94702      3.85536     -3.89382         0.476707     -0.013621     -0.379076
