# total energy = -119.09537743 eV
 
CRYSTAL
PRIMVEC
2.027097 4.016838 2.027313 
2.026735 0.000032 -6.081610 
-2.027057 4.016824 -2.027344 
PRIMCOORD
16 1
Li	     -1.80617      3.89526     -2.12809        -0.266835     -0.000295      0.081129
Li	      0.00185      5.84495     -1.96656        -0.178013      0.356193      0.174958
Li	     -0.16030      3.89534     -3.77098        -0.323383     -0.001059     -0.423516
Li	      0.00218      1.94703     -1.96669        -0.180463     -0.355786      0.175512
Ti	      1.96634      5.84458     -3.93354         0.561610      0.828745      0.485138
Ti	      1.94832      3.89576     -5.88342         0.815096      0.002480     -0.877387
Ti	      1.98560      3.89571     -1.98456         1.182189      0.005658      0.612591
Ti	      1.96632      1.94500     -3.93351         0.556859     -0.804993      0.482155
O	      0.03138      5.80910     -3.96585        -1.401899      0.226137      0.681235
O	      0.09302      3.89589     -1.87396        -1.509824     -0.003434     -0.014365
O	      0.03114      1.98216     -3.96528        -1.400458     -0.227274      0.673786
O	      1.93508      1.91336     -5.86798         0.971188     -1.574735     -1.740729
O	      1.87448      3.89583     -0.09423         0.669198     -0.003043      2.423334
O	      0.00067      3.89552     -5.90115        -0.867191     -0.010115     -0.692204
O	      1.93534      5.87787     -5.86848         0.968739      1.577187     -1.735835
O	      1.96725      3.89541     -3.93427         0.403186     -0.015667     -0.305800
