# total energy = -119.59239595 eV
 
CRYSTAL
PRIMVEC
2.037546 4.037543 2.037763 
2.037182 0.000033 -6.112959 
-2.037505 4.037530 -2.037794 
PRIMCOORD
16 1
Li	     -1.82483      3.93553     -2.15009        -0.203501      0.000511      0.066550
Li	      0.00187      5.90536     -1.98689        -0.143982      0.274914      0.135353
Li	     -0.16195      3.93561     -3.80996        -0.259718      0.000170     -0.340190
Li	      0.00220      1.96715     -1.98702        -0.146011     -0.278559      0.136084
Ti	      1.98667      5.90499     -3.97420         0.421097      0.552610      0.365587
Ti	      1.96846      3.93602     -5.94423         0.677769      0.002190     -0.619744
Ti	      2.00612      3.93598     -2.00507         0.862373      0.005059      0.442374
Ti	      1.98664      1.96511     -3.97416         0.417607     -0.531109      0.362784
O	      0.03171      5.86914     -4.00684        -1.079536      0.172118      0.566976
O	      0.09398      3.93616     -1.89333        -1.183175     -0.002885     -0.041802
O	      0.03146      2.00265     -4.00626        -1.078274     -0.172382      0.557944
O	      1.95508      1.93313     -5.92862         0.763832     -1.263893     -1.397047
O	      1.89386      3.93610     -0.09520         0.539194     -0.002394      1.964738
O	      0.00068      3.93579     -5.96215        -0.682943     -0.008875     -0.567112
O	      1.95534      5.93862     -5.92913         0.761703      1.265791     -1.389267
O	      1.98758      3.93567     -3.97493         0.333565     -0.013264     -0.243228
