# total energy = -119.97768419 eV
 
CRYSTAL
PRIMVEC
2.047995 4.058248 2.048213 
2.047629 0.000033 -6.144307 
-2.047954 4.058235 -2.048245 
PRIMCOORD
16 1
Li	     -1.84360      3.97599     -2.17220        -0.145575      0.000001      0.052705
Li	      0.00189      5.96608     -2.00732        -0.113630      0.208838      0.101997
Li	     -0.16362      3.97608     -3.84914        -0.196421      0.001813     -0.263221
Li	      0.00223      1.98738     -2.00745        -0.113954     -0.211567      0.101385
Ti	      2.00710      5.96571     -4.01507         0.303671      0.304488      0.262408
Ti	      1.98870      3.97650     -6.00536         0.558980      0.001833     -0.395908
Ti	      2.02675      3.97645     -2.02568         0.581517      0.004239      0.282274
Ti	      2.00707      1.98531     -4.01503         0.301122     -0.284516      0.260736
O	      0.03203      5.92949     -4.04804        -0.789630      0.124858      0.449690
O	      0.09494      3.97663     -1.91280        -0.881004     -0.002395     -0.054579
O	      0.03178      2.02324     -4.04746        -0.784156     -0.129201      0.442464
O	      1.97519      1.95301     -5.98959         0.565347     -0.975801     -1.071932
O	      1.91333      3.97657     -0.09617         0.411002     -0.001939      1.527737
O	      0.00068      3.97626     -6.02345        -0.517257     -0.007786     -0.445753
O	      1.97545      5.99969     -5.99010         0.562594      0.978402     -1.065760
O	      2.00802      3.97614     -4.01581         0.257394     -0.011267     -0.184241
