# total energy = -120.25953049 eV
 
CRYSTAL
PRIMVEC
2.058444 4.078954 2.058663 
2.058076 0.000033 -6.175656 
-2.058403 4.078940 -2.058695 
PRIMCOORD
16 1
Li	     -1.86246      4.01667     -2.19442        -0.096365      0.000959      0.036593
Li	      0.00191      6.02712     -2.02786        -0.083967      0.146818      0.073607
Li	     -0.16529      4.01675     -3.88851        -0.140475      0.000336     -0.188588
Li	      0.00225      2.00771     -2.02799        -0.084248     -0.147576      0.071165
Ti	      2.02763      6.02674     -4.05614         0.206595      0.104048      0.176116
Ti	      2.00904      4.01718     -6.06680         0.447240      0.003843     -0.212186
Ti	      2.04749      4.01713     -2.04641         0.345858      0.005384      0.146996
Ti	      2.02761      2.00562     -4.05611         0.204415     -0.084038      0.173839
O	      0.03236      5.99015     -4.08945        -0.529255      0.089427      0.332843
O	      0.09591      4.01731     -1.93236        -0.604977     -0.004876     -0.053404
O	      0.03211      2.04394     -4.08886        -0.516444     -0.090365      0.323132
O	      1.99540      1.97299     -6.05086         0.378034     -0.701277     -0.769398
O	      1.93291      4.01725     -0.09716         0.281570     -0.003499      1.112764
O	      0.00069      4.01694     -6.08507        -0.368078     -0.007902     -0.326543
O	      1.99566      6.06107     -6.05138         0.374240      0.700851     -0.763169
O	      2.02856      4.01682     -4.05689         0.185857     -0.012133     -0.133767
