# total energy = -120.54725958 eV
 
CRYSTAL
PRIMVEC
2.079342 4.120364 2.079563 
2.078970 0.000033 -6.238353 
-2.079300 4.120351 -2.079595 
PRIMCOORD
16 1
Li	     -1.90047      4.09864     -2.23921        -0.019383      0.000134      0.004592
Li	      0.00195      6.15011     -2.06924        -0.026925      0.041305      0.019114
Li	     -0.16867      4.09872     -3.96787        -0.046891      0.001924     -0.051358
Li	      0.00230      2.04868     -2.06937        -0.027836     -0.042611      0.020222
Ti	      2.06901      6.14973     -4.13892         0.058569     -0.044269      0.043346
Ti	      2.05004      4.09916     -6.19060         0.179207      0.003761     -0.024911
Ti	      2.08927      4.09911     -2.08817         0.048213      0.004838      0.012088
Ti	      2.06898      2.04655     -4.13888         0.057839      0.060093      0.041663
O	      0.03302      6.11239     -4.17291        -0.105983      0.043963      0.084534
O	      0.09787      4.09930     -1.97180        -0.150688     -0.003222     -0.009554
O	      0.03276      2.08565     -4.17230        -0.098791     -0.044183      0.075708
O	      2.03612      2.01325     -6.17434         0.067032     -0.196889     -0.208640
O	      1.97235      4.09923     -0.09914         0.057831     -0.004973      0.333686
O	      0.00070      4.09891     -6.20925        -0.107672     -0.008225     -0.100035
O	      2.03639      6.18476     -6.17487         0.059293      0.194655     -0.202523
O	      2.06996      4.09879     -4.13968         0.056184     -0.006300     -0.037931
