# total energy = -120.53423791 eV
 
CRYSTAL
PRIMVEC
2.100240 4.161775 2.100463 
2.099864 0.000034 -6.301050 
-2.100198 4.161761 -2.100496 
PRIMCOORD
16 1
Li	     -1.93886      4.18144     -2.28444         0.037132     -0.002400     -0.029140
Li	      0.00199      6.27436     -2.11104         0.020305     -0.043692     -0.017110
Li	     -0.17208      4.18153     -4.04802         0.027623     -0.002680      0.066303
Li	      0.00234      2.09007     -2.11118         0.018415      0.036963     -0.018057
Ti	      2.11080      6.27396     -4.22253        -0.042437      0.087299     -0.039141
Ti	     -0.00841      4.18194     -0.01461        -0.150099      0.004650     -0.032638
Ti	      2.13148      4.18192     -2.13035        -0.047594      0.005305      0.025541
Ti	      2.11078      2.08789     -4.22249        -0.042448     -0.071417     -0.039492
O	      0.03369      6.23587     -4.25721         0.192267      0.036703     -0.181354
O	      0.09985      4.18211     -2.01163         0.200969     -0.003743      0.093164
O	      0.03343      2.12778     -4.25659         0.194673     -0.038556     -0.190525
O	      2.07725      2.05392     -6.29907        -0.160504      0.252206      0.295623
O	      2.01219      4.18205     -0.10115        -0.121249     -0.001779     -0.384192
O	      0.00072      4.18171     -6.33469         0.095904     -0.009189      0.109641
O	      2.07752      6.30970     -6.29962        -0.160558     -0.249187      0.298533
O	      2.11178      4.18159     -4.22331        -0.062398     -0.000483      0.042845
