# total energy = -120.43091836 eV
 
CRYSTAL
PRIMVEC
2.110689 4.182481 2.110913 
2.110311 0.000034 -6.332398 
-2.110647 4.182467 -2.110946 
PRIMCOORD
16 1
Li	     -1.95820      4.22315     -2.30723         0.053146      0.000856     -0.049394
Li	      0.00201      6.33695     -2.13210         0.039778     -0.072059     -0.029501
Li	     -0.17379      4.22324     -4.08841         0.059583     -0.000612      0.122668
Li	      0.00236      2.11092     -2.13224         0.039367      0.068075     -0.034542
Ti	      2.13186      6.33655     -4.26465        -0.079365      0.075324     -0.065771
Ti	      0.00201      4.22365     -0.04627        -0.247119      0.003973     -0.015800
Ti	      2.15274      4.22363     -2.15161        -0.116280      0.005554     -0.004683
Ti	      2.13183      2.10872     -4.26461        -0.079206     -0.059952     -0.066595
O	      2.14467      2.11561     -2.18873         0.327573      0.049320     -0.294339
O	      0.10084      4.22383     -2.03170         0.358670     -0.003546      0.142868
O	      0.03376      2.14901     -4.29905         0.333784     -0.050536     -0.301195
O	     -0.01234      2.07438     -0.02951        -0.276487      0.455579      0.505044
O	      2.03227      4.22376     -0.10216        -0.213615     -0.003097     -0.701861
O	      0.00073      4.22343     -6.39788         0.191652     -0.008623      0.212749
O	     -0.01207      6.37261     -0.03006        -0.276435     -0.455762      0.505583
O	      2.13285      4.22331     -4.26544        -0.115046     -0.004494      0.074768
