# total energy = -120.26652148 eV
 
CRYSTAL
PRIMVEC
2.121138 4.203186 2.121363 
2.120758 0.000034 -6.363747 
-2.121095 4.203172 -2.121396 
PRIMCOORD
16 1
Li	     -1.97763      4.26507     -2.33013         0.066503      0.001949     -0.072738
Li	      0.00203      6.39984     -2.15326         0.057952     -0.104054     -0.040698
Li	     -0.17551      4.26515     -4.12898         0.089983      0.001042      0.175665
Li	      0.00239      2.13187     -2.15340         0.060293      0.097332     -0.044216
Ti	      2.15302      6.39944     -4.30697        -0.110477      0.020079     -0.088032
Ti	      0.01252      4.26557     -0.07823        -0.297759      0.004331      0.008964
Ti	      2.17411      4.26555     -2.17296        -0.201695      0.004091     -0.050330
Ti	      2.15299      2.12965     -4.30694        -0.109854     -0.005253     -0.087898
O	      2.15546      2.15742     -2.22095         0.462485      0.073197     -0.394737
O	      0.10184      4.26575     -2.05186         0.491670     -0.000415      0.184779
O	      0.03409      2.17034     -4.34172         0.464619     -0.074911     -0.397559
O	     -0.00196      2.09497     -0.06130        -0.388213      0.655042      0.687460
O	      2.05244      4.26569     -0.10317        -0.304649      0.000079     -0.990794
O	      0.00073      4.26535     -6.46138         0.281391     -0.006797      0.315659
O	     -0.00169      6.43586     -0.06186        -0.393214     -0.662734      0.695519
O	      2.15401      4.26523     -4.30777        -0.169037     -0.002977      0.098955
