# total energy = -90.94448448 eV
 
CRYSTAL
PRIMVEC
0.000002 2.060190 2.060100 
4.031324 0.000011 -0.000009 
0.000074 8.665280 -8.665342 
PRIMCOORD
16 1
Li	      2.01736      2.25128     -0.19092         0.001543      0.109064     -0.108653
Li	      0.00190      4.28500     -0.16516        -0.000390      0.008954     -0.008511
Li	      2.01765      4.26052     -2.19952         0.000430     -0.096692      0.096371
Li	      2.01751      6.40285     -4.34148         0.001613     -0.015136      0.015870
Mn	      0.00166      0.00839     -0.00781         0.000366      0.134633     -0.134692
Mn	      0.00194      4.34515     -4.34398        -0.000335     -0.031436      0.031822
Ni	      0.00171      6.40834     -6.40741         0.001848      0.010412     -0.011202
Ni	      2.01743      8.55391     -6.49311        -0.001019      0.014483     -0.014533
O	      2.01744      6.53578     -6.53507        -0.001171     -0.112500      0.113215
O	      0.00172      8.67119     -6.61049        -0.000281      0.015644     -0.016152
O	      2.01758      4.39199     -4.39073        -0.001183      0.023730     -0.024993
O	      0.00182      6.38579     -4.32454        -0.000571     -0.094525      0.094036
O	      2.01747      2.17841     -2.17800         0.000086     -0.005850      0.006276
O	      0.00193      4.49905     -2.43773        -0.000514      0.071059     -0.071964
O	      2.01738      8.56392     -8.56337        -0.000215      0.048838     -0.048011
O	      0.00167      1.90794      0.15272        -0.000206     -0.080679      0.081121
