# total energy = -120.04537133 eV
 
CRYSTAL
PRIMVEC
2.131587 4.223891 2.131813 
2.131205 0.000034 -6.395095 
-2.131544 4.223877 -2.131846 
PRIMCOORD
16 1
Li	     -1.99717      4.30719     -2.35314         0.075386      0.002774     -0.093833
Li	      0.00205      6.46305     -2.17453         0.076410     -0.126618     -0.051241
Li	     -0.17725      4.30728     -4.16976         0.115150     -0.001565      0.225829
Li	      0.00241      2.15292     -2.17467         0.076622      0.121842     -0.052319
Ti	      2.17428      6.46265     -4.34951        -0.135131     -0.052830     -0.106498
Ti	      0.02315      4.30770     -0.11050        -0.320377      0.004045      0.036266
Ti	      2.19558      4.30768     -2.19442        -0.287957      0.003748     -0.102091
Ti	      2.17426      2.15069     -4.34948        -0.133989      0.066050     -0.106031
O	      2.16624      2.19954     -2.25339         0.587750      0.104951     -0.487257
O	      0.10285      4.30788     -2.07213         0.611560     -0.003027      0.226313
O	      0.03443      2.19177     -4.38460         0.591892     -0.111145     -0.491448
O	      0.00852      2.11566     -0.09341        -0.506956      0.846069      0.861116
O	      2.07271      4.30782     -0.10419        -0.391366     -0.000702     -1.261038
O	      0.00074      4.30748     -6.52520         0.365337     -0.006331      0.416750
O	      0.00880      6.49942     -0.09397        -0.507821     -0.848102      0.866187
O	      2.17529      4.30735     -4.35032        -0.216511      0.000842      0.119296
