# total energy = -119.45080514 eV
 
CRYSTAL
PRIMVEC
2.152485 4.265302 2.152714 
2.152100 0.000034 -6.457792 
-2.152442 4.265288 -2.152747 
PRIMCOORD
16 1
Li	      0.11592      0.12677     -0.24676         0.080060      0.001693     -0.146227
Li	      0.00209      6.59040     -2.21737         0.110142     -0.163493     -0.068261
Li	     -0.18074      4.39215     -4.25193         0.157120      0.000001      0.323388
Li	      0.00246      2.19535     -2.21752         0.107384      0.159561     -0.068837
Ti	      2.21713      6.58999     -4.43521        -0.169651     -0.244116     -0.139893
Ti	      0.04470      4.39258     -0.17599        -0.308326      0.003653      0.103477
Ti	      2.23884      4.39256     -2.23765        -0.463931      0.003826     -0.228754
Ti	      2.21710      2.19306     -4.43518        -0.168470      0.259818     -0.139027
O	      2.18782      2.28469     -2.31890         0.809624      0.212984     -0.640045
O	      0.10488      4.39276     -2.11296         0.809867     -0.002157      0.307176
O	      0.03511      2.23496     -4.47100         0.809596     -0.214785     -0.641196
O	      0.02978      2.15735     -0.15857        -0.707855      1.191518      1.158209
O	      2.11355      4.39270     -0.10624        -0.568644     -0.004518     -1.742874
O	      0.00076      4.39235     -6.65377         0.515356     -0.009946      0.603965
O	      0.03007      6.62748     -0.15913        -0.710257     -1.196628      1.162707
O	      2.21815      4.39222     -4.43604        -0.302016      0.002590      0.156192
