# total energy = -119.08388660 eV
 
CRYSTAL
PRIMVEC
2.162934 4.286007 2.163164 
2.162547 0.000035 -6.489141 
-2.162890 4.285993 -2.163197 
PRIMCOORD
16 1
Li	      0.10655      0.14881     -0.25966         0.075440      0.002070     -0.170019
Li	      0.00211      6.65454     -2.23895         0.125321     -0.176449     -0.073133
Li	     -0.18250      4.43490     -4.29331         0.177396      0.000646      0.365512
Li	      0.00248      2.21671     -2.23910         0.122536      0.173449     -0.075874
Ti	      2.23870      6.65412     -4.47838        -0.179630     -0.367349     -0.152067
Ti	      0.05563      4.43533     -0.20921        -0.290892      0.003638      0.162761
Ti	      2.26063      4.43531     -2.25943        -0.536702      0.004143     -0.319165
Ti	      2.23867      2.21441     -4.47834        -0.178364      0.381559     -0.151125
O	      2.19862      2.32773     -2.35197         0.913893      0.262744     -0.703132
O	      0.10590      4.43552     -2.13352         0.900875     -0.003617      0.345898
O	      0.03545      2.25671     -4.51451         0.912064     -0.263570     -0.708363
O	      0.04057      2.17834     -0.19161        -0.811225      1.342462      1.290914
O	      2.13412      4.43545     -0.10727        -0.656323     -0.003616     -1.967879
O	      0.00076      4.43510     -6.71853         0.578414     -0.009423      0.693351
O	      0.04086      6.69199     -0.19218        -0.811298     -1.348423      1.294798
O	      2.23974      4.43497     -4.47921        -0.341506      0.001735      0.167523
