# total energy = -117.73510131 eV
 
CRYSTAL
PRIMVEC
2.194281 4.348123 2.194514 
2.193888 0.000035 -6.583186 
-2.194237 4.348109 -2.194548 
PRIMCOORD
16 1
Li	      0.07786      0.21617     -0.29905         0.047729      0.000750     -0.258817
Li	      0.00217      6.84882     -2.30432         0.160639     -0.203070     -0.092740
Li	     -0.18783      4.56437     -4.41865         0.218752     -0.000531      0.487094
Li	      0.00256      2.28143     -2.30448         0.159499      0.199888     -0.093029
Ti	      2.30406      6.84839     -4.60913        -0.180471     -0.748624     -0.175240
Ti	      0.08905      4.56482     -0.31072        -0.162703      0.002747      0.352924
Ti	      2.32663      4.56480     -2.32540        -0.749428      0.002270     -0.554281
Ti	      2.30404      2.27906     -4.60909        -0.179157      0.762942     -0.174241
O	      2.23101      2.45871     -2.45244         1.186948      0.416642     -0.890174
O	      0.10899      4.56501     -2.19581         1.085512     -0.003070      0.423629
O	      0.03649      2.32260     -4.64631         1.188161     -0.420907     -0.892927
O	      0.07355      2.24194     -0.29261        -1.080267      1.752272      1.647978
O	      2.19642      4.56494     -0.11041        -0.894422     -0.001194     -2.561014
O	      0.00078      4.56458     -6.91467         0.747643     -0.007738      0.951219
O	      0.07385      6.88736     -0.29321        -1.081919     -1.755893      1.651791
O	      2.30513      4.56445     -4.60998        -0.466514      0.003514      0.177828
