# total energy = -117.42327366 eV
 
CRYSTAL
PRIMVEC
3.969624 0.000060 0.000054 
0.000006 3.987119 -3.987563 
0.000115 6.027906 2.041027 
PRIMCOORD
16 1
Li	      0.00187      0.09377     -0.09197        -0.274331     -0.651586      0.119909
Li	      1.90795      1.80022     -0.11658         0.344650     -0.477905      0.288581
Li	      1.90675      5.90467      0.16047         0.337546      0.193157      0.665519
Li	      0.00199      1.82248     -1.82053        -0.362410     -0.193418     -0.455685
Ti	      0.00210      3.85202      0.02122        -1.467816     -0.604571      2.186377
Ti	      1.90732      3.82884     -1.91529         1.268467      0.514005     -0.852779
Ti	      0.00175      5.76557     -1.89232        -1.506108      1.026901     -1.618660
Ti	      1.90778      7.70455     -1.86753         1.124282      2.050791     -0.716265
O	      0.00175      1.99509      0.07878        -0.506698     -2.584543     -0.154236
O	      1.90756      3.85294      0.02245         1.753630     -0.110188      2.095148
O	      0.00192      3.82357     -1.92086        -1.598761     -1.844261     -1.730410
O	      1.90729      5.76641     -1.89157         1.869361      0.846078     -0.181358
O	      0.00169      5.70934     -0.03496        -0.523491      2.647065      2.469440
O	      1.90730      1.97958     -1.97848         0.540144     -3.266008      0.422026
O	      0.00247      7.70804     -1.86430        -1.441113      2.319152      0.362563
O	      1.90718      3.76604     -3.76468         0.442648      0.135332     -2.900168
