# total energy = -118.22936830 eV
 
CRYSTAL
PRIMVEC
3.990299 0.000061 0.000054 
0.000006 4.007885 -4.008331 
0.000116 6.059301 2.051658 
PRIMCOORD
16 1
Li	      0.00189      0.09475     -0.09293        -0.232772     -0.555515      0.113877
Li	      1.92788      1.81903     -0.11780         0.280771     -0.406506      0.230548
Li	      1.92666      5.96634      0.16215         0.277040      0.160532      0.568638
Li	      0.00201      1.84152     -1.83954        -0.297065     -0.157409     -0.382813
Ti	      0.00212      3.89224      0.02145        -1.173212     -0.509061      1.807559
Ti	      1.92724      3.86883     -1.93529         0.997375      0.451209     -0.731696
Ti	      0.00177      5.82579     -1.91208        -1.200819      0.877008     -1.291146
Ti	      1.92771      7.78501     -1.88704         0.888821      1.704217     -0.636109
O	      0.00176      2.01593      0.07960        -0.426301     -2.142686     -0.140853
O	      1.92748      3.89317      0.02268         1.440496     -0.102476      1.716198
O	      0.00194      3.86350     -1.94092        -1.297332     -1.533058     -1.437709
O	      1.92721      5.82663     -1.91133         1.527804      0.724375     -0.146109
O	      0.00170      5.76897     -0.03532        -0.438203      2.181073      2.027837
O	      1.92723      2.00025     -1.99915         0.451614     -2.726611      0.382879
O	      0.00250      7.78854     -1.88377        -1.179164      1.937138      0.311187
O	      1.92710      3.80538     -3.80400         0.380946      0.097769     -2.392288
