# total energy = -118.89570389 eV
 
CRYSTAL
PRIMVEC
4.010974 0.000061 0.000054 
0.000006 4.028651 -4.029100 
0.000116 6.090696 2.062288 
PRIMCOORD
16 1
Li	      0.00191      0.09574     -0.09390        -0.195217     -0.464456      0.104908
Li	      1.94791      1.83793     -0.11902         0.220649     -0.337074      0.182572
Li	      1.94668      6.02833      0.16383         0.225394      0.134548      0.474552
Li	      0.00203      1.86065     -1.85866        -0.237897     -0.124286     -0.315989
Ti	      0.00214      3.93268      0.02167        -0.919078     -0.419559      1.461876
Ti	      1.94726      3.90902     -1.95540         0.768172      0.386301     -0.613729
Ti	      0.00179      5.88631     -1.93195        -0.936418      0.733705     -1.004615
Ti	      1.94773      7.86590     -1.90664         0.688936      1.389552     -0.552475
O	      0.00178      2.03687      0.08043        -0.351311     -1.740336     -0.121375
O	      1.94751      3.93362      0.02292         1.157276     -0.092581      1.376507
O	      0.00196      3.90364     -1.96108        -1.027571     -1.248846     -1.173711
O	      1.94723      5.88717     -1.93118         1.216685      0.600617     -0.116758
O	      0.00172      5.82891     -0.03569        -0.359451      1.763409      1.626169
O	      1.94725      2.02104     -2.01992         0.370737     -2.233102      0.337717
O	      0.00252      7.86946     -1.90334        -0.942167      1.586230      0.270387
O	      1.94713      3.84491     -3.84352         0.321260      0.065879     -1.936036
