# total energy = -119.43292957 eV
 
CRYSTAL
PRIMVEC
4.031649 0.000061 0.000055 
0.000006 4.049417 -4.049868 
0.000117 6.122092 2.072918 
PRIMCOORD
16 1
Li	      0.00193      0.09673     -0.09487        -0.156799     -0.377658      0.091320
Li	      1.96804      1.85692     -0.12025         0.171087     -0.276029      0.140081
Li	      1.96680      6.09063      0.16552         0.173502      0.107795      0.390411
Li	      0.00205      1.87988     -1.87786        -0.184390     -0.090880     -0.256642
Ti	      0.00217      3.97333      0.02189        -0.698743     -0.336906      1.150794
Ti	      1.96739      3.94942     -1.97561         0.573982      0.325310     -0.497266
Ti	      0.00181      5.94716     -1.95192        -0.709145      0.595743     -0.756139
Ti	      1.96787      7.94720     -1.92635         0.520263      1.100663     -0.467010
O	      0.00180      2.05792      0.08126        -0.280985     -1.363184     -0.097550
O	      1.96764      3.97428      0.02316         0.899002     -0.082310      1.071759
O	      0.00198      3.94399     -1.98135        -0.787751     -0.991769     -0.929686
O	      1.96736      5.94802     -1.95114         0.940639      0.484304     -0.094947
O	      0.00174      5.88915     -0.03605        -0.285642      1.377177      1.258999
O	      1.96738      2.04193     -2.04079         0.292907     -1.773245      0.285966
O	      0.00255      7.95079     -1.92301        -0.731236      1.264981      0.225883
O	      1.96725      3.88465     -3.88325         0.263309      0.036009     -1.515973
