# total energy = -119.85174910 eV
 
CRYSTAL
PRIMVEC
4.052324 0.000062 0.000055 
0.000007 4.070184 -4.070637 
0.000117 6.153487 2.083549 
PRIMCOORD
16 1
Li	      0.00195      0.09772     -0.09584        -0.120947     -0.299482      0.078155
Li	      1.98827      1.87601     -0.12149         0.124943     -0.214689      0.103187
Li	      1.98702      6.15326      0.16723         0.125942      0.084126      0.306036
Li	      0.00207      1.89921     -1.89717        -0.139374     -0.064409     -0.201760
Ti	      0.00219      4.01419      0.02212        -0.506654     -0.257857      0.869218
Ti	      1.98762      3.99004     -1.99593         0.409418      0.270634     -0.378209
Ti	      0.00183      6.00830     -1.97199        -0.511886      0.467529     -0.544870
Ti	      1.98810      8.02892     -1.94616         0.374562      0.829539     -0.384565
O	      0.00182      2.07909      0.08210        -0.213316     -1.014402     -0.064365
O	      1.98787      4.01515      0.02339         0.671784     -0.072719      0.799423
O	      0.00200      3.98455     -2.00173        -0.579892     -0.752071     -0.705089
O	      1.98759      6.00918     -1.97121         0.698932      0.374656     -0.070103
O	      0.00176      5.94971     -0.03643        -0.217704      1.020418      0.923247
O	      1.98760      2.06293     -2.06178         0.223156     -1.342524      0.221502
O	      0.00258      8.03255     -1.94278        -0.544915      0.966032      0.179503
O	      1.98748      3.92460     -3.92318         0.205951      0.005219     -1.131310
