# total energy = -120.16059834 eV
 
CRYSTAL
PRIMVEC
4.072999 0.000062 0.000055 
0.000007 4.090950 -4.091405 
0.000118 6.184882 2.094179 
PRIMCOORD
16 1
Li	      0.00197      0.09872     -0.09682        -0.087688     -0.225342      0.065122
Li	      2.00862      1.89521     -0.12273         0.084243     -0.159616      0.070120
Li	      2.00735      6.21621      0.16894         0.090250      0.061754      0.225283
Li	      0.00209      1.91864     -1.91658        -0.096575     -0.041587     -0.147388
Ti	      0.00221      4.05525      0.02234        -0.342233     -0.184219      0.615818
Ti	      2.00796      4.03085     -2.01634         0.271701      0.221506     -0.258387
Ti	      0.00185      6.06977     -1.99216        -0.344438      0.345535     -0.366207
Ti	      2.00844      8.11106     -1.96607         0.251615      0.573962     -0.308646
O	      0.00184      2.10036      0.08294        -0.153135     -0.695352     -0.027089
O	      2.00820      4.05622      0.02363         0.467025     -0.054565      0.560385
O	      0.00202      4.02531     -2.02221        -0.398964     -0.536760     -0.498651
O	      2.00792      6.07065     -1.99137         0.483978      0.277119     -0.049076
O	      0.00177      6.01057     -0.03680        -0.156936      0.692897      0.620236
O	      2.00794      2.08403     -2.08287         0.161275     -0.941598      0.147948
O	      0.00260      8.11473     -1.96266        -0.381539      0.691710      0.130588
O	      2.00781      3.96475     -3.96332         0.151420     -0.025444     -0.780058
