# total energy = -120.36832678 eV
 
CRYSTAL
PRIMVEC
4.093674 0.000062 0.000055 
0.000007 4.111716 -4.112174 
0.000119 6.216278 2.104809 
PRIMCOORD
16 1
Li	      0.00199      0.09972     -0.09781        -0.056562     -0.153860      0.047712
Li	      2.02906      1.91450     -0.12398         0.051657     -0.106224      0.042044
Li	      2.02778      6.27948      0.17066         0.055952      0.042585      0.149707
Li	      0.00212      1.93817     -1.93609        -0.060414     -0.023567     -0.100336
Ti	      0.00223      4.09653      0.02257        -0.204674     -0.114997      0.388017
Ti	      2.02839      4.07188     -2.03686         0.158973      0.175171     -0.140478
Ti	      0.00187      6.13155     -2.01244        -0.204728      0.227174     -0.215638
Ti	      2.02888      8.19361     -1.98608         0.149697      0.336185     -0.233531
O	      0.00185      2.12173      0.08378        -0.097160     -0.400971      0.016752
O	      2.02864      4.09751      0.02387         0.290254     -0.037021      0.346847
O	      0.00204      4.06627     -2.04279        -0.244674     -0.339105     -0.316162
O	      2.02836      6.13244     -2.01164         0.296825      0.179194     -0.029479
O	      0.00179      6.07175     -0.03717        -0.100578      0.392197      0.342902
O	      2.02837      2.10524     -2.10407         0.103638     -0.566302      0.070587
O	      0.00263      8.19732     -1.98264        -0.237270      0.446031      0.088426
O	      2.02825      4.00510     -4.00365         0.099063     -0.056492     -0.457371
