# total energy = -120.48442809 eV
 
CRYSTAL
PRIMVEC
4.114350 0.000063 0.000056 
0.000007 4.132482 -4.132942 
0.000119 6.247673 2.115440 
PRIMCOORD
16 1
Li	      0.00201      0.10074     -0.09880        -0.027849     -0.084331      0.029356
Li	      2.04961      1.93388     -0.12524         0.024310     -0.054621      0.019485
Li	      2.04831      6.34307      0.17239         0.026287      0.022119      0.073536
Li	      0.00213      1.95780     -1.95570        -0.029096     -0.003859     -0.056685
Ti	      0.00225      4.13801      0.02280        -0.091481     -0.050626      0.185405
Ti	      2.04893      4.11311     -2.05749         0.069087      0.132967     -0.024196
Ti	      0.00188      6.19364     -2.03282        -0.090328      0.114307     -0.092142
Ti	      2.04943      8.27658     -2.00619         0.065654      0.113279     -0.161149
O	      0.00188      2.14322      0.08463        -0.047015     -0.128111      0.066267
O	      2.04919      4.13900      0.02412         0.135595     -0.021857      0.161208
O	      0.00206      4.10746     -2.06347        -0.111665     -0.160975     -0.147306
O	      2.04890      6.19454     -2.03201         0.136985      0.089437     -0.017733
O	      0.00181      6.13324     -0.03755        -0.047181      0.123887      0.096321
O	      2.04892      2.12656     -2.12538         0.049533     -0.222421     -0.012551
O	      0.00266      8.28033     -2.00271        -0.112555      0.211983      0.045692
O	      2.04878      4.04566     -4.04419         0.049719     -0.081177     -0.165510
