# total energy = -120.34777250 eV
 
CRYSTAL
PRIMVEC
4.176375 0.000064 0.000057 
0.000007 4.194781 -4.195248 
0.000121 6.341859 2.147331 
PRIMCOORD
16 1
Li	      0.00208      0.10379     -0.10180         0.048983      0.130773     -0.035590
Li	      2.11187      1.99263     -0.12904        -0.040178      0.083605     -0.031996
Li	      2.11054      6.53576      0.17762        -0.039299     -0.033700     -0.132468
Li	      0.00220      2.01727     -2.01510         0.045416      0.043902      0.047636
Ti	      0.00232      4.26372      0.02349         0.121751      0.123474     -0.289200
Ti	      2.11118      4.23806     -2.11999        -0.077762      0.006786      0.300912
Ti	      0.00194      6.38179     -2.09457         0.122042     -0.197218      0.151323
Ti	      2.11169      8.52801     -2.06713        -0.084880     -0.468599      0.043922
O	      0.00193      2.20833      0.08720         0.089630      0.563527      0.249541
O	      2.11144      4.26473      0.02485        -0.216162      0.035539     -0.257750
O	      0.00212      4.23223     -2.12616         0.162803      0.276451      0.257333
O	      2.11114      6.38272     -2.09374        -0.208428     -0.158796      0.018039
O	      0.00187      6.31955     -0.03869         0.087883     -0.562841     -0.513441
O	      2.11116      2.19116     -2.18994        -0.086765      0.681174     -0.282046
O	      0.00274      8.53187     -2.06355         0.167065     -0.390604     -0.090040
O	      2.11102      4.16856     -4.16705        -0.092100     -0.133473      0.563826
