# total energy = -120.16379101 eV
 
CRYSTAL
PRIMVEC
4.197050 0.000064 0.000057 
0.000007 4.215547 -4.216017 
0.000121 6.373254 2.157961 
PRIMCOORD
16 1
Li	      0.00209      0.10483     -0.10281         0.070607      0.210975     -0.058749
Li	      2.13283      2.01240     -0.13032        -0.052524      0.124754     -0.045781
Li	      2.13149      6.60063      0.17938        -0.051807     -0.047736     -0.196603
Li	      0.00222      2.03729     -2.03511         0.062680      0.059296      0.077785
Ti	      0.00235      4.30604      0.02373         0.151565      0.179209     -0.407804
Ti	      2.13213      4.28013     -2.14103        -0.091427     -0.054061      0.382494
Ti	      0.00196      6.44513     -2.11536         0.150256     -0.290844      0.196985
Ti	      2.13265      8.61265     -2.08765        -0.107020     -0.626829      0.122585
O	      0.00195      2.23025      0.08807         0.126244      0.760781      0.313662
O	      2.13240      4.30707      0.02510        -0.293094      0.053139     -0.353721
O	      0.00215      4.27423     -2.14726         0.215759      0.390472      0.367604
O	      2.13209      6.44607     -2.11452        -0.281447     -0.227762      0.023569
O	      0.00188      6.38228     -0.03907         0.123986     -0.755353     -0.675377
O	      2.13211      2.21290     -2.21168        -0.124590      0.930773     -0.367067
O	      0.00276      8.61655     -2.08403         0.230714     -0.576425     -0.130935
O	      2.13197      4.20993     -4.20841        -0.129903     -0.130389      0.751352
