# total energy = -119.91988869 eV
 
CRYSTAL
PRIMVEC
4.217725 0.000064 0.000057 
0.000007 4.236314 -4.236785 
0.000122 6.404650 2.168591 
PRIMCOORD
16 1
Li	      0.00211      0.10586     -0.10383         0.089324      0.297359     -0.086546
Li	      2.15390      2.03228     -0.13161        -0.065023      0.160297     -0.058225
Li	      2.15254      6.66582      0.18115        -0.062669     -0.064792     -0.257588
Li	      0.00224      2.05741     -2.05520         0.076381      0.065484      0.109850
Ti	      0.00237      4.34857      0.02396         0.176656      0.258332     -0.503630
Ti	      2.15319      4.32240     -2.16218        -0.099922     -0.130393      0.417513
Ti	      0.00198      6.50878     -2.13625         0.168924     -0.378592      0.251548
Ti	      2.15371      8.69772     -2.10827        -0.129488     -0.770090      0.226091
O	      0.00197      2.25227      0.08893         0.164484      0.934303      0.378417
O	      2.15345      4.34960      0.02534        -0.354987      0.062025     -0.423769
O	      0.00217      4.31645     -2.16847         0.251520      0.484293      0.468732
O	      2.15315      6.50973     -2.13541        -0.333433     -0.280417      0.021396
O	      0.00190      6.44531     -0.03946         0.162524     -0.918146     -0.824404
O	      2.15317      2.23476     -2.23352        -0.157445      1.148956     -0.446826
O	      0.00279      8.70165     -2.10461         0.280569     -0.765703     -0.188275
O	      2.15303      0.01520     -0.01319        -0.167415     -0.102916      0.915717
