# total energy = -119.62547026 eV
 
CRYSTAL
PRIMVEC
4.238400 0.000065 0.000057 
0.000007 4.257080 -4.257554 
0.000123 6.436045 2.179222 
PRIMCOORD
16 1
Li	      0.00214      0.10690     -0.10485         0.108185      0.385369     -0.109416
Li	      2.17507      2.05226     -0.13290        -0.072760      0.194548     -0.067400
Li	      2.17369      6.73133      0.18294        -0.070841     -0.074033     -0.319078
Li	      0.00227      2.07764     -2.07540         0.089277      0.077731      0.137551
Ti	      0.00239      4.39130      0.02419         0.187126      0.314849     -0.581935
Ti	      2.17435      4.36488     -2.18343        -0.101316     -0.218532      0.445092
Ti	      0.00200      6.57276     -2.15725         0.171551     -0.455554      0.269418
Ti	      2.17488      8.78320     -2.12899        -0.143627     -0.886881      0.342225
O	      0.00199      2.27441      0.08981         0.196819      1.102499      0.457080
O	      2.17462      4.39236      0.02559        -0.399146      0.079127     -0.474883
O	      0.00219      4.35888     -2.18978         0.272952      0.574080      0.563623
O	      2.17431      6.57372     -2.15639        -0.361873     -0.326822      0.027432
O	      0.00192      6.50866     -0.03985         0.193603     -1.075128     -0.960195
O	      2.17433      2.25673     -2.25548        -0.184050      1.341055     -0.539356
O	      0.00282      8.78717     -2.12530         0.320156     -0.946055     -0.242790
O	      2.17418      0.03621     -0.03419        -0.206055     -0.086253      1.052632
