# total energy = -92.89755106 eV
 
CRYSTAL
PRIMVEC
-0.000004 2.059028 2.059050 
8.274228 0.000161 -0.000178 
0.000141 4.190399 -4.190536 
PRIMCOORD
16 1
Li	      2.06829      2.07824     -0.01708         0.000122      0.000111     -0.001022
Li	      4.13929      0.05364     -0.04959        -0.002948      0.028262     -0.030425
Li	      6.20537      2.07816     -0.01820        -0.000551      0.000350      0.000336
Li	      8.27130      2.04513     -2.04344         0.003393     -0.029251      0.029238
Mn	      8.27367      0.03184     -0.03096         0.000522      0.052620     -0.051575
Mn	      4.13694      2.06499     -2.06437        -0.000919     -0.051614      0.053620
Ni	      6.20527      4.17344     -2.11352         0.000016     -0.001584      0.000337
Ni	      2.06814      4.17297     -2.11289        -0.000518     -0.000081     -0.000804
O	      6.07088      2.12170     -2.12097        -0.070683     -0.111252      0.111662
O	      8.27367      4.29493     -2.23530         0.000751      0.016391     -0.015576
O	      6.33985      4.16598     -4.16519         0.070045      0.110383     -0.110608
O	      8.27359      1.97020      0.08974         0.000739     -0.029182      0.028700
O	      2.20353      2.12129     -2.12036         0.070216     -0.110129      0.110009
O	      4.13680      4.05120     -1.99168         0.000371     -0.014789      0.016326
O	      1.93295      4.16556     -4.16454        -0.069999      0.110918     -0.111580
O	      4.13722      2.18565     -0.12599        -0.000558      0.028846     -0.028639
