# total energy = -118.51182004 eV
 
CRYSTAL
PRIMVEC
4.300426 0.000065 0.000058 
0.000007 4.319379 -4.319859 
0.000124 6.530231 2.211113 
PRIMCOORD
16 1
Li	      0.00220      0.11005     -0.10794         0.154666      0.740451     -0.190828
Li	      2.23919      2.11276     -0.13682        -0.077033      0.292560     -0.080642
Li	      2.23778      6.92979      0.18833        -0.082938     -0.109840     -0.489996
Li	      0.00233      2.13889     -2.13659         0.106800      0.105863      0.212625
Ti	      0.00246      4.52077      0.02491         0.147556      0.384446     -0.595845
Ti	      2.23846      4.49357     -2.24780        -0.045382     -0.579492      0.360764
Ti	      0.00206      6.76654     -2.22085         0.095588     -0.509393      0.194526
Ti	      2.23900      9.04215     -2.19175        -0.137400     -1.066428      0.822546
O	      0.00205      2.34146      0.09245         0.292789      1.485872      0.662625
O	      2.23873      4.52185      0.02634        -0.426647      0.132783     -0.502412
O	      0.00225      4.48739     -2.25434         0.236251      0.826457      0.804243
O	      2.23842      6.76752     -2.21997        -0.347024     -0.412593      0.038487
O	      0.00198      6.70055     -0.04102         0.283684     -1.499114     -1.293841
O	      2.23844      2.32326     -2.32197        -0.257227      1.742703     -0.845781
O	      0.00290      9.04624     -2.18795         0.362673     -1.478835     -0.350112
O	      2.23829      0.10050     -0.09842        -0.306356     -0.055440      1.253641
