# total energy = -118.01898202 eV
 
CRYSTAL
PRIMVEC
4.321101 0.000066 0.000059 
0.000007 4.340145 -4.340628 
0.000125 6.561626 2.221743 
PRIMCOORD
16 1
Li	      0.00222      0.11111     -0.10898         0.168970      0.884878     -0.191132
Li	      2.26077      2.13313     -0.13814        -0.078111      0.325064     -0.075174
Li	      2.25935      6.99658      0.19015        -0.084794     -0.125189     -0.556992
Li	      0.00235      2.15950     -2.15718         0.112406      0.136513      0.219803
Ti	      0.00249      4.56434      0.02515         0.114253      0.492317     -0.737760
Ti	      2.26003      4.53688     -2.26947         0.002429     -0.512149      0.516582
Ti	      0.00208      6.83176     -2.24226         0.048070     -0.696012      0.222720
Ti	      2.26058      9.12930     -2.21288        -0.131037     -1.342116      0.751652
O	      0.00207      2.36403      0.09335         0.319114      1.635307      0.773355
O	      2.26031      4.56543      0.02660        -0.432770      0.149687     -0.540962
O	      0.00228      4.53063     -2.27607         0.216158      0.865805      0.853190
O	      2.25999      6.83275     -2.24137        -0.332701     -0.488644      0.024830
O	      0.00200      6.76513     -0.04142         0.307689     -1.596783     -1.370623
O	      2.26001      2.34565     -2.34435        -0.275264      1.979593     -0.927950
O	      0.00293      9.13343     -2.20904         0.378414     -1.700257     -0.394949
O	      2.25986      0.12233     -0.12023        -0.332826     -0.008015      1.433410
