# total energy = -117.51965817 eV
 
CRYSTAL
PRIMVEC
4.341776 0.000066 0.000059 
0.000007 4.360911 -4.361397 
0.000126 6.593022 2.232374 
PRIMCOORD
16 1
Li	      0.00224      0.11218     -0.11003         0.182046      1.056602     -0.219040
Li	      2.28246      2.15359     -0.13946        -0.075187      0.360976     -0.069364
Li	      2.28102      7.06370      0.19197        -0.085197     -0.144461     -0.617408
Li	      0.00238      2.18022     -2.17788         0.112930      0.149768      0.237404
Ti	      0.00251      4.60812      0.02539         0.116311      0.470860     -0.620427
Ti	      2.28171      4.58040     -2.29124         0.012253     -0.585380      0.461868
Ti	      0.00210      6.89729     -2.26376         0.021098     -0.593631      0.112512
Ti	      2.28226      9.21687     -2.23411        -0.141130     -1.450328      0.846517
O	      0.00209      2.38670      0.09424         0.337960      1.706321      0.889329
O	      2.28199      4.60922      0.02685        -0.418834      0.152781     -0.533563
O	      0.00229      4.57409     -2.29790         0.168578      0.932482      0.932398
O	      2.28167      6.89829     -2.26287        -0.294707     -0.521361      0.020948
O	      0.00202      6.83002     -0.04181         0.335346     -1.727931     -1.494391
O	      2.28169      2.36815     -2.36684        -0.285715      2.090447     -1.016693
O	      0.00296      9.22104     -2.23024         0.371747     -1.920702     -0.418132
O	      2.28154      0.14437     -0.14225        -0.357499      0.023557      1.488041
