# total energy = -115.13858899 eV
 
CRYSTAL
PRIMVEC
1.976691 3.985915 1.976648 
3.959211 -3.999165 0.020480 
3.938682 -0.000055 -3.938497 
PRIMCOORD
16 1
Li	      5.67075     -0.01915      1.83386         0.364247     -0.154125      0.961987
Li	      1.94387      1.87712      0.07400        -1.075975      0.171067      0.737882
Li	      7.44515     -0.01967      0.06040         0.883277      0.099424      0.455147
Li	      3.70017      1.87017      1.83015        -0.323818      0.568978      0.751216
Ti	      7.47648     -1.89904     -1.87689         3.205732     -2.599601     -2.053157
Ti	      3.74040     -0.03729     -0.00159        -1.226611     -0.129698      1.766454
Ti	      3.82157     -1.79052     -1.79017        -1.653439     -2.666097     -2.527380
Ti	      5.61039     -0.03728     -1.87143         0.269644      1.264234     -2.825700
O	      3.78088     -1.90130      0.03489        -0.587636     -3.972177      2.806289
O	      5.58520      0.05997     -0.02661         3.229887     -0.353515      3.156070
O	      1.93998     -0.02241      0.06985        -4.413616     -0.177951     -0.761161
O	      3.81519      1.86118     -0.02917        -1.204707      3.453830      1.900039
O	      5.64669     -1.90140     -1.83088         0.604176     -4.110369     -0.489527
O	      7.47617     -0.03681     -1.87735         4.118162      2.706611      0.631690
O	      3.70602      0.05146     -1.90575        -3.092162      2.781804     -3.043165
O	      5.58256      1.86109     -1.79643         0.902840      3.117585     -1.466684
