# total energy = -116.34519294 eV
 
CRYSTAL
PRIMVEC
1.987095 4.006893 1.987051 
3.980049 -4.020213 0.020588 
3.959412 -0.000056 -3.959226 
PRIMCOORD
16 1
Li	      5.73060     -0.01935      1.85322         0.326743     -0.133464      0.831230
Li	      1.96438      1.89693      0.07478        -0.930285      0.144499      0.639562
Li	      7.52372     -0.01988      0.06103         0.765817      0.080809      0.388321
Li	      3.73923      1.88990      1.84947        -0.289222      0.494758      0.643085
Ti	      7.55539     -1.91908     -1.89670         2.740185     -2.231388     -1.780245
Ti	      3.77987     -0.03768     -0.00161        -1.091315     -0.150715      1.439480
Ti	      3.86189     -1.80941     -1.80906        -1.343162     -2.208286     -2.119592
Ti	      5.66960     -0.03767     -1.89118         0.232626      1.085238     -2.390329
O	      3.82079     -1.92136      0.03526        -0.529236     -3.400503      2.361497
O	      5.64414      0.06060     -0.02688         2.762775     -0.328472      2.710353
O	      1.96046     -0.02265      0.07059        -3.782368     -0.144724     -0.689111
O	      3.85546      1.88082     -0.02948        -1.105822      2.983022      1.688612
O	      5.70629     -1.92146     -1.85020         0.540289     -3.520272     -0.422347
O	      7.55508     -0.03720     -1.89716         3.540709      2.317449      0.598931
O	      3.74514      0.05200     -1.92587        -2.654426      2.337948     -2.613470
O	      5.64147      1.88073     -1.81539         0.816694      2.674101     -1.285975
