# total energy = -118.97163353 eV
 
CRYSTAL
PRIMVEC
2.018305 4.069829 2.018261 
4.042563 -4.083358 0.020911 
4.021602 -0.000057 -4.021412 
PRIMCOORD
16 1
Li	      5.91203     -0.01997      1.91189         0.216250     -0.074498      0.496153
Li	      2.02657      1.95699      0.07714        -0.551809      0.072477      0.383742
Li	      7.76193     -0.02051      0.06296         0.458571      0.043390      0.225909
Li	      3.85761      1.94974      1.90802        -0.185863      0.301040      0.373087
Ti	      7.79460     -1.97984     -1.95675         1.561213     -1.303969     -1.055375
Ti	      3.89955     -0.03888     -0.00166        -0.708507     -0.162381      0.689255
Ti	      3.98417     -1.86670     -1.86633        -0.627163     -1.111645     -1.123679
Ti	      5.84911     -0.03887     -1.95105         0.141662      0.624939     -1.328451
O	      3.94176     -1.98219      0.03638        -0.352903     -1.944878      1.264896
O	      5.82284      0.06252     -0.02774         1.567407     -0.239197      1.561152
O	      2.02253     -0.02336      0.07282        -2.171337     -0.061810     -0.449793
O	      3.97752      1.94036     -0.03042        -0.776016      1.751709      1.068807
O	      5.88695     -1.98230     -1.90878         0.351985     -2.015720     -0.247068
O	      7.79427     -0.03837     -1.95723         2.072600      1.331141      0.450594
O	      3.86371      0.05365     -1.98684        -1.538142      1.247768     -1.512072
O	      5.82008      1.94028     -1.87286         0.542051      1.541632     -0.797156
