# total energy = -120.69213053 eV
 
CRYSTAL
PRIMVEC
2.070324 4.174721 2.070278 
4.146753 -4.188599 0.021450 
4.125251 -0.000058 -4.125057 
PRIMCOORD
16 1
Li	      6.22070     -0.02101      2.01171         0.045339     -0.004595      0.069408
Li	      2.13238      2.05916      0.08117        -0.073281      0.006994      0.058360
Li	      8.16719     -0.02158      0.06625         0.068423      0.013107      0.041844
Li	      4.05902      2.05154      2.00764        -0.026181      0.039137      0.051381
Ti	      8.20156     -2.08321     -2.05891         0.153904     -0.225385     -0.185811
Ti	      4.10314     -0.04090     -0.00174        -0.162131     -0.059566      0.067813
Ti	      4.19218     -1.96416     -1.96378         0.005246     -0.041439     -0.072955
Ti	      6.15449     -0.04089     -2.05292         0.033712      0.059316     -0.211303
O	      4.14756     -2.08569      0.03827        -0.058496     -0.215441      0.111909
O	      6.12685      0.06579     -0.02918         0.152112     -0.007099      0.158661
O	      2.12812     -0.02458      0.07663        -0.218695      0.007468     -0.005702
O	      4.18519      2.04168     -0.03200        -0.118652      0.209819      0.152570
O	      6.19431     -2.08579     -2.00844         0.033469     -0.223724     -0.033077
O	      8.20122     -0.04037     -2.05942         0.262452      0.165156      0.066398
O	      4.06544      0.05645     -2.09058        -0.179845      0.097556     -0.172422
O	      6.12395      2.04158     -1.97065         0.082623      0.178697     -0.097075
