# total energy = -120.52750784 eV
 
CRYSTAL
PRIMVEC
2.101535 4.237657 2.101489 
4.209267 -4.251743 0.021773 
4.187441 -0.000059 -4.187244 
PRIMCOORD
16 1
Li	      0.09887     -0.00756     -0.05044        -0.050471      0.027665     -0.121784
Li	      2.19716      2.12172      0.08364         0.147067     -0.008277     -0.091494
Li	      2.10448     -0.00815     -2.05500        -0.114108      0.009242     -0.037777
Li	      4.18232      2.11386      2.06863         0.054515     -0.085792     -0.082759
Ti	      4.24144      2.10525     -2.14323        -0.444822      0.204289      0.135371
Ti	      4.22779     -0.04215     -0.00180         0.121229      0.045733     -0.030483
Ti	      4.31953     -2.02383     -2.02343         0.147852      0.258591      0.294500
Ti	      6.34145     -0.04213     -2.11528        -0.024288     -0.179662      0.174363
O	      4.27355     -2.14904      0.03944         0.118560      0.501941     -0.240516
O	      6.31297      0.06779     -0.03007        -0.425596      0.167095     -0.444200
O	      2.19277     -0.02533      0.07895         0.629509      0.014151      0.271581
O	      4.31233      2.10370     -0.03298         0.315271     -0.471626     -0.305339
O	      6.38248     -2.14916     -2.06945        -0.152751      0.524080      0.059276
O	      8.45036     -0.04161     -2.12198        -0.537374     -0.322138     -0.229640
O	      4.18894      0.05816     -2.15408         0.410123     -0.274030      0.399708
O	      6.30999      2.10360     -2.03051        -0.194716     -0.411260      0.249194
