# total energy = -120.31724464 eV
 
CRYSTAL
PRIMVEC
2.111938 4.258635 2.111892 
4.230105 -4.272792 0.021881 
4.208171 -0.000059 -4.207973 
PRIMCOORD
16 1
Li	      0.13125     -0.00770     -0.04037        -0.083772      0.034343     -0.177952
Li	      2.21897      2.14278      0.08447         0.215767     -0.009873     -0.134079
Li	      2.15676     -0.00830     -2.06483        -0.170475      0.008685     -0.060447
Li	      4.22384      2.13484      2.08916         0.078720     -0.120635     -0.121833
Ti	      4.30448      2.10500     -2.16440        -0.610810      0.317703      0.210660
Ti	      4.26975     -0.04257     -0.00182         0.210596      0.086234     -0.027317
Ti	      4.36241     -2.04392     -2.04352         0.168039      0.312579      0.382068
Ti	      6.40440     -0.04255     -2.13628        -0.043538     -0.243390      0.266304
O	      4.31597     -2.17038      0.03983         0.178863      0.698071     -0.314047
O	      6.37564      0.06845     -0.03037        -0.586846      0.230824     -0.612625
O	      2.21454     -0.02558      0.07974         0.874529      0.013996      0.368152
O	      4.35513      2.12458     -0.03331         0.457904     -0.669586     -0.440879
O	      6.44583     -2.17049     -2.08999        -0.213319      0.729476      0.081940
O	      8.53423     -0.04202     -2.14304        -0.763048     -0.450213     -0.334770
O	      4.23051      0.05874     -2.17546         0.579123     -0.353509      0.564264
O	      6.37262      2.12448     -2.05066        -0.291734     -0.584705      0.350563
