# total energy = -120.03951243 eV
 
CRYSTAL
PRIMVEC
2.122342 4.279614 2.122296 
4.250943 -4.293840 0.021989 
4.228901 -0.000060 -4.228702 
PRIMCOORD
16 1
Li	      0.16394     -0.00785     -0.03021        -0.116620      0.039188     -0.233535
Li	      2.24088      2.16394      0.08530         0.278117     -0.010407     -0.175213
Li	      2.20946     -0.00845     -2.07466        -0.225037      0.011584     -0.081797
Li	      2.14321     -2.12369     -0.01250         0.103114     -0.151899     -0.157443
Ti	      4.36793      2.10463     -2.18566        -0.763966      0.416673      0.271897
Ti	      4.31192     -0.04299     -0.00183         0.296818      0.130307     -0.009940
Ti	      4.40549     -2.06410     -2.06370         0.175755      0.345985      0.453271
Ti	      6.46765     -0.04297     -2.15737        -0.063961     -0.300122      0.343486
O	      4.35860     -2.19181      0.04022         0.240475      0.875432     -0.366613
O	      6.43860      0.06913     -0.03067        -0.728752      0.293549     -0.767148
O	      2.23641     -0.02583      0.08052         1.093873      0.013060      0.462188
O	      4.39814      2.14556     -0.03363         0.604949     -0.849051     -0.563018
O	      6.50949     -2.19192     -2.11063        -0.275277      0.917110      0.102074
O	      8.61852     -0.04243     -2.16420        -0.971727     -0.569883     -0.441517
O	      4.27230      0.05932     -2.19695         0.732387     -0.421130      0.714455
O	      6.43555      2.14546     -2.07092        -0.380148     -0.740395      0.448854
