# total energy = -119.70032379 eV
 
CRYSTAL
PRIMVEC
2.132745 4.300592 2.132699 
4.271781 -4.314888 0.022097 
4.249631 -0.000060 -4.249431 
PRIMCOORD
16 1
Li	      0.19695     -0.00800     -0.01995        -0.152929      0.046540     -0.284537
Li	      2.26291      2.18520      0.08614         0.338574     -0.008823     -0.212254
Li	      2.26257     -0.00861     -2.08449        -0.274752      0.014524     -0.102397
Li	      2.17473     -2.12348     -0.00217         0.127683     -0.183045     -0.189637
Ti	      4.43180      2.10417     -2.20704        -0.903721      0.502334      0.320019
Ti	      4.35430     -0.04341     -0.00185         0.381074      0.176129      0.021684
Ti	      4.44879     -2.08439     -2.08398         0.172027      0.358116      0.510194
Ti	      6.53121     -0.04339     -2.17858        -0.085976     -0.349978      0.406842
O	      4.40143     -2.21335      0.04062         0.299535      1.040312     -0.401593
O	      6.50188      0.06981     -0.03097        -0.855809      0.361766     -0.907586
O	      2.25839     -0.02609      0.08132         1.302505      0.011183      0.558471
O	      4.44137      2.16665     -0.03396         0.749916     -1.014188     -0.679301
O	      6.57347     -2.21347     -2.13138        -0.332599      1.085744      0.121606
O	      8.70322     -0.04285     -2.18547        -1.164926     -0.683563     -0.555966
O	      4.31429      0.05990     -2.21854         0.874451     -0.469686      0.852641
O	      6.49880      2.16654     -2.09127        -0.475051     -0.887365      0.541814
