# total energy = -119.30474239 eV
 
CRYSTAL
PRIMVEC
2.143149 4.321571 2.143102 
4.292619 -4.335936 0.022204 
4.270361 -0.000060 -4.270160 
PRIMCOORD
16 1
Li	      0.23026     -0.00815     -0.00958        -0.184151      0.050121     -0.335723
Li	      2.28504      2.20658      0.08698         0.394503     -0.006361     -0.246756
Li	      2.31609     -0.00876     -2.09431        -0.325178      0.017754     -0.120302
Li	      2.20645     -2.12316      0.00827         0.147075     -0.212414     -0.220222
Ti	      4.49608      2.10360     -2.22851        -1.031448      0.573242      0.355453
Ti	      4.39688     -0.04383     -0.00188         0.462614      0.225260      0.066758
Ti	      4.49230     -2.10477     -2.10436         0.160313      0.351512      0.552573
Ti	      6.59509     -0.04382     -2.19988        -0.109636     -0.393522      0.458054
O	      4.44448     -2.23500      0.04101         0.365561      1.190047     -0.416916
O	      6.56547      0.07050     -0.03128        -0.971908      0.430480     -1.035492
O	      2.28048     -0.02635      0.08211         1.499409      0.005524      0.656441
O	      4.48481      2.18784     -0.03430         0.889881     -1.167449     -0.787026
O	      6.63776     -2.23511     -2.15222        -0.390790      1.242899      0.137040
O	      8.78834     -0.04327     -2.20685        -1.342992     -0.781989     -0.676370
O	      4.35648      0.06049     -2.24024         1.003427     -0.503800      0.982953
O	      6.56236      2.18773     -2.11172        -0.566680     -1.021303      0.629536
