# total energy = -118.85540318 eV
 
CRYSTAL
PRIMVEC
2.153553 4.342549 2.153506 
4.313457 -4.356985 0.022312 
4.291091 -0.000060 -4.290888 
PRIMCOORD
16 1
Li	      0.26390     -0.00829      0.00089        -0.217776      0.049085     -0.384025
Li	      2.30728      2.22806      0.08783         0.450701     -0.002988     -0.279598
Li	      2.37003     -0.00891     -2.10413        -0.374227      0.021399     -0.138567
Li	      2.23838     -2.12275      0.01880         0.163664     -0.236982     -0.247301
Ti	      4.56078      2.10291     -2.25009        -1.132881      0.640350      0.385713
Ti	      4.43967     -0.04426     -0.00189         0.525342      0.264378      0.107393
Ti	      4.53602     -2.12525     -2.12484         0.118811      0.300265      0.555477
Ti	      6.65927     -0.04424     -2.22130        -0.127882     -0.425373      0.477636
O	      4.48773     -2.25675      0.04142         0.428076      1.331881     -0.385102
O	      6.62937      0.07118     -0.03158        -1.070093      0.505721     -1.143115
O	      2.30267     -0.02660      0.08291         1.671180      0.009818      0.756216
O	      4.52845      2.20913     -0.03463         1.031260     -1.302869     -0.886851
O	      6.70236     -2.25687     -2.17317        -0.434468      1.377956      0.149916
O	      8.87387     -0.04369     -2.22832        -1.514753     -0.891592     -0.787252
O	      4.39888      0.06108     -2.26204         1.137825     -0.500304      1.109906
O	      6.62623      2.20903     -2.13227        -0.654779     -1.140746      0.709555
