# total energy = -118.36614384 eV
 
CRYSTAL
PRIMVEC
2.163956 4.363528 2.163909 
4.334295 -4.378033 0.022420 
4.311821 -0.000061 -4.311617 
PRIMCOORD
16 1
Li	      0.29785     -0.00845      0.01146        -0.252468      0.052623     -0.434770
Li	      2.32962      2.24963      0.08868         0.503089      0.000113     -0.312565
Li	      2.42438     -0.00907     -2.11395        -0.425380      0.025025     -0.153683
Li	      2.27051     -2.12223      0.02943         0.184259     -0.261561     -0.274655
Ti	      4.62589      2.10213     -2.27178        -1.240992      0.698153      0.398341
Ti	      4.48267     -0.04469     -0.00191         0.566600      0.303895      0.188115
Ti	      4.57995     -2.14584     -2.14542         0.065801      0.236244      0.567395
Ti	      6.72377     -0.04467     -2.24281        -0.099272     -0.456042      0.483925
O	      4.53120     -2.27861      0.04182         0.494674      1.460007     -0.364330
O	      6.69357      0.07187     -0.03188        -1.145411      0.594347     -1.232227
O	      2.32497     -0.02686      0.08371         1.816376      0.015459      0.831812
O	      4.57231      2.23052     -0.03497         1.178631     -1.432714     -0.973501
O	      6.76727     -2.27873     -2.19421        -0.497042      1.516512      0.164548
O	      8.95981     -0.04411     -2.24991        -1.655619     -0.976984     -0.887463
O	      4.44148      0.06167     -2.28395         1.259042     -0.507757      1.210955
O	      6.69041      2.23042     -2.15293        -0.752290     -1.267319      0.788104
