# total energy = -117.26780709 eV
 
CRYSTAL
PRIMVEC
2.184764 4.405485 2.184716 
4.375970 -4.420129 0.022636 
4.353280 -0.000061 -4.353075 
PRIMCOORD
16 1
Li	      0.36668     -0.00875      0.03291        -0.325812      0.054697     -0.527886
Li	      2.37464      2.29310      0.09039         0.605965      0.009651     -0.369605
Li	      2.53430     -0.00938     -2.13357        -0.519617      0.037091     -0.184198
Li	      2.33539     -2.12087      0.05101         0.213157     -0.307434     -0.325263
Ti	      4.75736      2.10025     -2.31546        -1.429681      0.767599      0.400281
Ti	      4.56929     -0.04555     -0.00194         0.645043      0.393190      0.373644
Ti	      4.66845     -2.18730     -2.18688        -0.031399      0.086346      0.572335
Ti	      6.85369     -0.04554     -2.28615        -0.068197     -0.508821      0.472801
O	      4.61875     -2.32263      0.04263         0.630330      1.683362     -0.295738
O	      6.82292      0.07326     -0.03250        -1.281390      0.772699     -1.395003
O	      2.36990     -0.02738      0.08533         2.092047      0.013632      0.994647
O	      4.66067      2.27362     -0.03564         1.453715     -1.657850     -1.118188
O	      6.89804     -2.32276     -2.23661        -0.614633      1.745375      0.180830
O	      9.13295     -0.04496     -2.29338        -1.916785     -1.115295     -1.105251
O	      4.52730      0.06286     -2.32808         1.472768     -0.489519      1.405625
O	      6.81968      2.27352     -2.19453        -0.925511     -1.484722      0.920969
