# total energy = -115.86169219 eV
 
CRYSTAL
PRIMVEC
1.990410 3.927171 1.954109 
3.972976 -3.937427 0.028386 
3.959088 0.014496 -3.915142 
PRIMCOORD
16 1
Li	      5.69616     -0.00392      1.77849         0.533426     -0.280732      0.518489
Li	      5.66092     -1.87029      0.02586         0.383910     -0.534922      0.534706
Li	      1.85095      0.00438     -1.75407        -0.766020      0.322706     -0.308194
Li	      3.77359      0.00007      0.01271        -0.512169     -0.242893      0.729185
Ti	      3.76727      1.87720     -1.86065        -2.011472      2.426312     -1.919906
Ti	      3.76709      1.80721      1.83655        -0.865292      3.032500      3.152524
Ti	      3.78027     -1.80685     -1.81234        -1.038539     -2.416645     -1.805893
Ti	      5.65409      0.00698     -1.84732         0.464165      0.046731     -3.004369
O	      3.76755     -1.87583      0.03270         0.508932     -1.608783      2.362479
O	      5.65939      0.10238     -0.06618         0.700655     -0.755116      3.550386
O	      1.88709     -0.10190      0.09065        -1.738360      0.117111     -0.394708
O	      3.77985      1.87627     -0.00793        -1.533809      0.940148      0.240919
O	      5.66301     -1.88865     -1.81801         2.356103     -3.281009     -0.597253
O	      7.54665     -0.00340     -1.84938         4.061705     -1.581418      0.178650
O	      3.76159      0.01721     -1.84538        -3.160595      0.332508     -1.350675
O	      5.64518      1.90243     -1.87621         2.617360      3.483503     -1.886340
