# total energy = -90.29196783 eV
 
CRYSTAL
PRIMVEC
-4.095563 0.000120 -0.000416 
0.000411 -0.000020 4.095163 
-0.000239 8.345801 -0.000032 
PRIMCOORD
16 1
Li	     -2.04887      2.08393      0.00141         0.000112      0.000611      0.000946
Li	     -2.04818      0.08796      2.04968        -0.000007      0.050914     -0.000507
Li	     -0.00090      2.08425      2.04950        -0.000016     -0.000431      0.000572
Li	     -2.04909      4.08009      2.04947         0.001022     -0.048886      0.000038
Mn	     -0.00070      0.10370      0.00226        -0.000338      0.138917     -0.000737
Mn	     -0.00133      4.06452      0.00219         0.000273     -0.138510     -0.000541
Ni	     -2.04882      6.25712      0.00214        -0.000321      0.001116     -0.000423
Ni	     -0.00080      6.25702      2.04992        -0.000514      0.001216     -0.000231
O	     -2.04871      2.08407      2.04921        -0.000569     -0.000891      0.001514
O	     -0.00119      4.23166      2.04980         0.001767     -0.053957     -0.002786
O	     -2.04859      6.25716      2.04977        -0.000828     -0.001477      0.000390
O	     -0.00112      2.08399      0.00197        -0.000542     -0.000922      0.001628
O	     -2.04910      4.23164      0.00198         0.001676     -0.052313     -0.002817
O	     -0.00062      8.28232      2.04983        -0.000490      0.053972      0.001462
O	     -0.00105      6.25721      0.00239        -0.000645     -0.001551      0.000281
O	     -2.04869      8.28258      0.00204        -0.000580      0.052191      0.001212
