# total energy = -116.89210016 eV
 
CRYSTAL
PRIMVEC
2.000886 3.947840 1.964393 
3.993887 -3.958151 0.028536 
3.979926 0.014573 -3.935748 
PRIMCOORD
16 1
Li	      5.75628     -0.00396      1.79726         0.472762     -0.241783      0.426952
Li	      5.72066     -1.89003      0.02613         0.317969     -0.463883      0.454306
Li	      1.87049      0.00442     -1.77259        -0.664859      0.281367     -0.253467
Li	      3.81342      0.00007      0.01285        -0.455331     -0.212447      0.636897
Ti	      3.80703      1.89702     -1.88029        -1.666760      2.026173     -1.593109
Ti	      3.80684      1.82629      1.85594        -0.771219      2.665174      2.695667
Ti	      3.82016     -1.82592     -1.83147        -0.821472     -2.030458     -1.482361
Ti	      5.71376      0.00705     -1.86682         0.391119      0.052572     -2.553947
O	      3.80731     -1.89563      0.03304         0.462026     -1.420126      1.984664
O	      5.71912      0.10346     -0.06688         0.604882     -0.706968      3.030448
O	      1.90701     -0.10298      0.09161        -1.527343      0.099906     -0.361085
O	      3.81975      1.89607     -0.00801        -1.363644      0.820816      0.225928
O	      5.72278     -1.90858     -1.83720         2.000497     -2.815022     -0.506946
O	      7.62630     -0.00344     -1.86889         3.536719     -1.342373      0.137362
O	      3.80129      0.01739     -1.86485        -2.721061      0.283065     -1.177185
O	      5.70476      1.92251     -1.89601         2.205715      3.003986     -1.664124
