# total energy = -117.77538425 eV
 
CRYSTAL
PRIMVEC
2.011362 3.968509 1.974678 
4.014797 -3.978874 0.028685 
4.000763 0.014649 -3.956354 
PRIMCOORD
16 1
Li	      5.81671     -0.00400      1.81613         0.417700     -0.209569      0.347803
Li	      5.78072     -1.90987      0.02640         0.259876     -0.396320      0.372777
Li	      1.89013      0.00447     -1.79120        -0.570161      0.247255     -0.203848
Li	      3.85345      0.00007      0.01299        -0.401932     -0.183146      0.545268
Ti	      3.84699      1.91693     -1.90003        -1.362146      1.668421     -1.303983
Ti	      3.84681      1.84546      1.87543        -0.678057      2.308362      2.274668
Ti	      3.86027     -1.84509     -1.85070        -0.636683     -1.684486     -1.193214
Ti	      5.77374      0.00712     -1.88642         0.327353      0.055808     -2.143109
O	      3.84728     -1.91553      0.03339         0.409841     -1.235760      1.644433
O	      5.77916      0.10455     -0.06759         0.516147     -0.650569      2.553318
O	      1.92703     -0.10407      0.09257        -1.328481      0.082439     -0.322193
O	      3.85984      1.91598     -0.00810        -1.193714      0.708475      0.202291
O	      5.78286     -1.92862     -1.85649         1.683244     -2.384148     -0.422328
O	      7.70636     -0.00348     -1.88851         3.046297     -1.124152      0.102425
O	      3.84119      0.01758     -1.88443        -2.313364      0.240957     -1.007671
O	      5.76465      1.94269     -1.91592         1.824080      2.556434     -1.446637
