# total energy = -118.52210996 eV
 
CRYSTAL
PRIMVEC
2.021838 3.989179 1.984963 
4.035708 -3.999597 0.028834 
4.021600 0.014725 -3.976960 
PRIMCOORD
16 1
Li	      5.87746     -0.00404      1.83509         0.360227     -0.174964      0.274910
Li	      5.84109     -1.92982      0.02668         0.210323     -0.331722      0.306898
Li	      1.90987      0.00452     -1.80990        -0.483907      0.209994     -0.161295
Li	      3.89369      0.00007      0.01312        -0.342249     -0.153364      0.459694
Ti	      3.88717      1.93695     -1.91987        -1.094766      1.348184     -1.046103
Ti	      3.88699      1.86473      1.89501        -0.586828      1.965259      1.889019
Ti	      3.90059     -1.86436     -1.87002        -0.477728     -1.375541     -0.938060
Ti	      5.83405      0.00720     -1.90612         0.270007      0.055420     -1.768587
O	      3.88747     -1.93554      0.03374         0.363957     -1.060844      1.340717
O	      5.83951      0.10564     -0.06829         0.429795     -0.587645      2.112648
O	      1.94715     -0.10515      0.09354        -1.136178      0.067182     -0.278411
O	      3.90016      1.93599     -0.00818        -1.032896      0.603807      0.179506
O	      5.84326     -1.94877     -1.87588         1.394241     -1.990333     -0.347808
O	      7.78685     -0.00351     -1.90824         2.576057     -0.919062      0.070755
O	      3.88131      0.01776     -1.90411        -1.932078      0.200408     -0.850776
O	      5.82485      1.96298     -1.93593         1.482023      2.143222     -1.243108
