# total energy = -120.03735363 eV
 
CRYSTAL
PRIMVEC
2.053265 4.051186 2.015817 
4.098439 -4.061767 0.029283 
4.084112 0.014954 -4.038778 
PRIMCOORD
16 1
Li	      6.06160     -0.00417      1.89259         0.198191     -0.083090      0.116361
Li	      6.02409     -1.99028      0.02752         0.091829     -0.167076      0.139709
Li	      1.96970      0.00466     -1.86661        -0.250407      0.114261     -0.062320
Li	      4.01568      0.00007      0.01353        -0.187120     -0.080818      0.233935
Ti	      4.00896      1.99764     -1.98002        -0.480011      0.595065     -0.454135
Ti	      4.00877      1.92315      1.95438        -0.328572      1.026292      0.908957
Ti	      4.02279     -1.92277     -1.92861        -0.143101     -0.644531     -0.358840
Ti	      6.01683      0.00743     -1.96584         0.132167      0.040691     -0.847795
O	      4.00926     -1.99618      0.03479         0.202999     -0.574308      0.624673
O	      6.02247      0.10895     -0.07043         0.224353     -0.348144      0.996377
O	      2.00816     -0.10844      0.09647        -0.609080      0.011172     -0.130150
O	      4.02235      1.99664     -0.00844        -0.563939      0.319953      0.093304
O	      6.02633     -2.00982     -1.93465         0.692452     -0.977379     -0.161943
O	      8.03081     -0.00363     -1.96802         1.329826     -0.408154      0.010491
O	      4.00291      0.01832     -1.96377        -0.960259      0.102907     -0.439480
O	      6.00734      2.02448     -1.99658         0.650672      1.073158     -0.669145
