# total energy = -120.32924006 eV
 
CRYSTAL
PRIMVEC
2.063741 4.071856 2.026102 
4.119349 -4.082490 0.029432 
4.104949 0.015030 -4.059384 
PRIMCOORD
16 1
Li	      6.12361     -0.00421      1.91195         0.143279     -0.058571      0.074874
Li	      6.08572     -2.01064      0.02779         0.060587     -0.119054      0.097731
Li	      1.98985      0.00471     -1.88570        -0.179805      0.083301     -0.040050
Li	      4.05676      0.00007      0.01367        -0.136671     -0.058300      0.169346
Ti	      4.04997      2.01807     -2.00028        -0.329119      0.406038     -0.308596
Ti	      4.04978      1.94283      1.97438        -0.251132      0.748224      0.635233
Ti	      4.06394     -1.94244     -1.94834        -0.072396     -0.457482     -0.219995
Ti	      6.07838      0.00750     -1.98595         0.094323      0.031390     -0.599454
O	      4.05027     -2.01660      0.03515         0.147398     -0.421901      0.438494
O	      6.08408      0.11007     -0.07115         0.164710     -0.257563      0.688504
O	      2.02870     -0.10955      0.09745        -0.447202     -0.007947     -0.077441
O	      4.06350      2.01706     -0.00852        -0.412995      0.238741      0.061975
O	      6.08798     -2.03038     -1.95444         0.503670     -0.694808     -0.112367
O	      8.11296     -0.00366     -1.98815         0.961321     -0.274047      0.002669
O	      4.04386      0.01851     -1.98386        -0.684366      0.071920     -0.316246
O	      6.06880      2.04519     -2.01700         0.438400      0.770059     -0.494677
