# total energy = -120.52776182 eV
 
CRYSTAL
PRIMVEC
2.074217 4.092525 2.036387 
4.140260 -4.103214 0.029581 
4.125787 0.015107 -4.079990 
PRIMCOORD
16 1
Li	      6.18593     -0.00426      1.93141         0.094212     -0.036306      0.043236
Li	      6.14766     -2.03110      0.02808         0.037975     -0.076987      0.059541
Li	      2.01011      0.00475     -1.90490        -0.115515      0.053432     -0.022955
Li	      4.09805      0.00007      0.01381        -0.087730     -0.038351      0.107776
Ti	      4.09119      2.03861     -2.02064        -0.200935      0.244913     -0.185415
Ti	      4.09099      1.96260      1.99447        -0.177638      0.490141      0.386695
Ti	      4.10531     -1.96221     -1.96817        -0.016810     -0.295267     -0.105261
Ti	      6.14024      0.00758     -2.00616         0.060899      0.021506     -0.376430
O	      4.09150     -2.03713      0.03551         0.092590     -0.278755      0.283346
O	      6.14600      0.11119     -0.07187         0.103926     -0.158415      0.405259
O	      2.04935     -0.11067      0.09844        -0.289497     -0.027632     -0.022455
O	      4.10485      2.03760     -0.00861        -0.268149      0.157246      0.026704
O	      6.14994     -2.05104     -1.97433         0.338837     -0.435231     -0.067224
O	      8.19554     -0.00370     -2.00839         0.614016     -0.156480     -0.002491
O	      4.08502      0.01869     -2.00405        -0.431944      0.046004     -0.202914
O	      6.13057      2.06601     -2.03753         0.245763      0.490182     -0.327413
