# total energy = -120.63982203 eV
 
CRYSTAL
PRIMVEC
2.084693 4.113194 2.046672 
4.161170 -4.123937 0.029731 
4.146624 0.015183 -4.100596 
PRIMCOORD
16 1
Li	      6.24858     -0.00430      1.95097         0.043101     -0.014152      0.016356
Li	      6.20992     -2.05167      0.02836         0.015964     -0.038517      0.026858
Li	      2.03046      0.00480     -1.92419        -0.053908      0.023873     -0.006220
Li	      4.13955      0.00007      0.01395        -0.046554     -0.020244      0.052440
Ti	      4.13262      2.05926     -2.04110        -0.093547      0.110339     -0.083361
Ti	      4.13242      1.98248      2.01467        -0.109528      0.253886      0.160027
Ti	      4.14688     -1.98208     -1.98810         0.021653     -0.155405     -0.013270
Ti	      6.20242      0.00765     -2.02647         0.028873      0.010297     -0.177763
O	      4.13293     -2.05776      0.03587         0.041083     -0.139465      0.149719
O	      6.20824      0.11231     -0.07260         0.053681     -0.051986      0.144162
O	      2.07010     -0.11179      0.09944        -0.141062     -0.044363      0.035751
O	      4.14643      2.05823     -0.00870        -0.127631      0.079794     -0.007225
O	      6.21222     -2.07182     -1.99432         0.194855     -0.195278     -0.026754
O	      8.27853     -0.00374     -2.02873         0.287385     -0.062550     -0.009885
O	      4.12639      0.01888     -2.02434        -0.195197      0.018794     -0.092623
O	      6.19265      2.08693     -2.05817         0.080831      0.224978     -0.168212
