# total energy = -120.63173173 eV
 
CRYSTAL
PRIMVEC
2.105644 4.154533 2.067241 
4.202991 -4.165384 0.030030 
4.188299 0.015336 -4.141809 
PRIMCOORD
16 1
Li	      6.37481     -0.00439      1.99038        -0.055595      0.023003     -0.028728
Li	      2.13238      2.07226     -0.00110        -0.013835      0.035286     -0.023804
Li	      2.07148      0.00490     -1.96306         0.062202     -0.033082      0.020134
Li	      4.22317      0.00007      0.01423         0.041478      0.016059     -0.049250
Ti	      4.21611      2.10086     -2.08233         0.071843     -0.092664      0.062734
Ti	      4.21590      2.02253      2.05537         0.015786     -0.154401     -0.236248
Ti	      4.23065     -2.02212     -2.02826         0.053998      0.061391      0.112443
Ti	      6.32772      0.00781     -2.06741        -0.030206     -0.014120      0.154909
O	      4.21642     -2.09933      0.03659        -0.064980      0.121800     -0.047123
O	      6.33365      0.11458     -0.07407        -0.048771      0.175074     -0.306736
O	      2.11192     -0.11405      0.10145         0.145196     -0.082242      0.152553
O	      4.23019      2.09981     -0.00887         0.138579     -0.065864     -0.076610
O	      6.33771     -2.11367     -2.03461        -0.047324      0.225368      0.043320
O	      8.44577     -0.00381     -2.06972        -0.318221      0.069606     -0.010326
O	      4.20975      0.01926     -2.06524         0.226082     -0.040994      0.108632
O	      6.31775      2.12908     -2.09975        -0.176230     -0.244220      0.124102
