# total energy = -120.52348610 eV
 
CRYSTAL
PRIMVEC
2.116120 4.175202 2.077526 
4.223901 -4.186107 0.030179 
4.209136 0.015412 -4.162415 
PRIMCOORD
16 1
Li	      4.32228     -4.17963     -0.06729        -0.108616      0.042900     -0.039179
Li	      2.17466      2.07211     -0.00096        -0.024543      0.065621     -0.045777
Li	      2.09214      0.00495     -1.98264         0.120063     -0.060640      0.031319
Li	      4.26530      0.00007      0.01437         0.084892      0.032285     -0.097198
Ti	      4.25816      2.12181     -2.10311         0.133777     -0.165768      0.110894
Ti	      4.25796      2.04270      2.07587         0.072841     -0.324176     -0.409605
Ti	      4.27285     -2.04229     -2.04849         0.048139      0.142537      0.153251
Ti	      6.39084      0.00788     -2.08804        -0.059470     -0.025697      0.290890
O	      4.25848     -2.12027      0.03696        -0.116813      0.244829     -0.115787
O	      6.39683      0.11572     -0.07481        -0.093335      0.291842     -0.501185
O	      2.13298     -0.11519      0.10246         0.284066     -0.097753      0.211237
O	      4.27238      2.12075     -0.00896         0.265075     -0.137702     -0.112921
O	      6.40093     -2.13475     -2.05491        -0.144331      0.405120      0.079382
O	      8.53002     -0.00385     -2.09036        -0.594459      0.112892     -0.012843
O	      4.25174      0.01945     -2.08584         0.410169     -0.070133      0.204047
O	      6.38077      2.15032     -2.12069        -0.277455     -0.456157      0.253475
