# total energy = -91.32409411 eV
 
CRYSTAL
PRIMVEC
-0.000536 2.062454 2.069617 
8.314525 -0.016101 0.014106 
-0.015578 4.214982 -4.229214 
PRIMCOORD
16 1
Li	      4.20680      4.19270     -0.07006        -0.003151     -0.051697      0.050338
Li	      4.17926      6.24139     -2.12493        -0.003157      0.050960     -0.051834
Li	      5.99481      2.11345     -0.05533        -0.013627      0.007131     -0.008746
Li	      2.27827      4.16741     -2.11241        -0.018011     -0.001230      0.005031
Mn	      8.25992      4.19238     -4.20825        -0.016914      0.003677     -0.005972
Mn	      2.16707      2.09365     -0.03512         0.128175     -0.025221      0.021699
Ni	      6.11115      4.15406     -2.09876         0.050831      0.035572     -0.032036
Ni	      8.25670      2.10394     -2.11255         0.037365     -0.010325      0.010425
O	      6.28462      4.19972     -0.07950        -0.122324     -0.115797      0.114002
O	      0.07422      4.21811     -2.14780         0.044931      0.083839     -0.068973
O	      6.38187      4.15891     -4.16924         0.031803      0.096186     -0.091204
O	      0.09770      2.07141     -0.02257         0.058058     -0.083991      0.072712
O	      2.01513      1.97133     -1.97660         0.090039     -0.029458      0.032117
O	      4.15355      4.19992     -2.14574        -0.144826     -0.001549      0.001495
O	      1.95412      2.17949      1.94503         0.022140      0.035371     -0.042472
O	      3.95784      2.06272     -0.00228        -0.141332      0.006533     -0.006582
