# total energy = -120.12632391 eV
 
CRYSTAL
PRIMVEC
2.137072 4.216541 2.098096 
4.265722 -4.227553 0.030478 
4.250811 0.015564 -4.203627 
PRIMCOORD
16 1
Li	      0.16373      0.00649     -0.07834        -0.205497      0.074202     -0.057061
Li	      2.26017      2.07149     -0.00067        -0.035775      0.122612     -0.076939
Li	      2.13378      0.00505     -2.02210         0.227264     -0.118225      0.047985
Li	      4.35018      0.00008      0.01466         0.159277      0.061631     -0.182237
Ti	      4.34290      2.16404     -2.14496         0.233087     -0.269427      0.165223
Ti	      2.20562     -2.13319      0.01908         0.164928     -0.590008     -0.706019
Ti	      4.35788     -2.08293     -2.08926         0.010458      0.259669      0.187947
Ti	      6.51802      0.00804     -2.12959        -0.125188     -0.044970      0.514230
O	      4.34322     -2.16246      0.03769        -0.225598      0.483859     -0.193425
O	      6.52413      0.11803     -0.07630        -0.185244      0.543253     -0.843643
O	      2.17543     -0.11748      0.10450         0.550440     -0.133831      0.331649
O	      4.35740      2.16295     -0.00914         0.511002     -0.280746     -0.190007
O	      6.52831     -2.17724     -2.09580        -0.299540      0.721049      0.143954
O	      8.69976     -0.00392     -2.13196        -1.113420      0.138232     -0.014762
O	      4.33635      0.01984     -2.12735         0.749276     -0.135197      0.371207
O	      6.50775      2.19311     -2.16289        -0.415469     -0.832103      0.501896
