# total energy = -119.84683554 eV
 
CRYSTAL
PRIMVEC
2.147548 4.237210 2.108380 
4.286633 -4.248277 0.030627 
4.271648 0.015641 -4.224233 
PRIMCOORD
16 1
Li	      0.19688      0.00650     -0.06862        -0.256305      0.087257     -0.060741
Li	      2.30340      2.07102     -0.00053        -0.041934      0.148728     -0.088384
Li	      2.15475      0.00510     -2.04197         0.279881     -0.143390      0.056262
Li	      4.39293      0.00008      0.01480         0.196574      0.074193     -0.220402
Ti	      4.38558      2.18530     -2.16604         0.274970     -0.307586      0.172196
Ti	      2.23782     -2.13339      0.02960         0.200522     -0.691194     -0.835944
Ti	      4.40071     -2.10340     -2.10979        -0.020253      0.300374      0.188328
Ti	      6.58208      0.00812     -2.15052        -0.163072     -0.048413      0.605327
O	      4.38591     -2.18371      0.03806        -0.272036      0.597614     -0.212164
O	      6.58825      0.11918     -0.07705        -0.227273      0.669624     -0.987938
O	      2.19681     -0.11863      0.10553         0.681487     -0.151017      0.391119
O	      4.40023      2.18422     -0.00923         0.621817     -0.348409     -0.226388
O	      6.59247     -2.19863     -2.11640        -0.354017      0.856978      0.170465
O	      8.78527     -0.00396     -2.15291        -1.354030      0.124253     -0.013396
O	      4.37897      0.02003     -2.14826         0.893206     -0.166703      0.450649
O	      6.57171      2.21467     -2.18415        -0.459537     -1.002308      0.611011
