# total energy = -119.51936028 eV
 
CRYSTAL
PRIMVEC
2.158024 4.257880 2.118665 
4.307543 -4.269000 0.030777 
4.292485 0.015717 -4.244839 
PRIMCOORD
16 1
Li	      0.23034      0.00652     -0.05881        -0.305646      0.100480     -0.065110
Li	      2.34694      2.07045     -0.00039        -0.041986      0.172742     -0.097553
Li	      2.17582      0.00514     -2.06194         0.332525     -0.170536      0.065119
Li	      4.43589      0.00008      0.01495         0.233549      0.085655     -0.255600
Ti	      4.42847      2.20668     -2.18722         0.311461     -0.339266      0.167555
Ti	      2.27024     -2.13348      0.04023         0.228584     -0.767883     -0.956071
Ti	      4.44376     -2.12398     -2.13043        -0.058777      0.330901      0.182862
Ti	      6.64645      0.00820     -2.17155        -0.206888     -0.048115      0.684370
O	      4.42880     -2.20507      0.03843        -0.327493      0.710222     -0.217035
O	      6.65268      0.12035     -0.07780        -0.271629      0.800242     -1.121720
O	      2.21830     -0.11979      0.10656         0.810371     -0.167820      0.447718
O	      4.44326      2.20557     -0.00932         0.734340     -0.415246     -0.261354
O	      6.65695     -2.22014     -2.13710        -0.399025      0.975726      0.196069
O	      8.87118     -0.00400     -2.17397        -1.579752      0.092144     -0.011878
O	      4.42179      0.02024     -2.16927         1.027448     -0.200964      0.530203
O	      6.63598      2.23633     -2.20551        -0.487082     -1.158281      0.712426
