# total energy = -119.14873823 eV
 
CRYSTAL
PRIMVEC
2.168499 4.278549 2.128950 
4.328453 -4.289723 0.030926 
4.313322 0.015793 -4.265445 
PRIMCOORD
16 1
Li	      0.26412      0.00653     -0.04889        -0.359337      0.111834     -0.064909
Li	      2.39079      2.06978     -0.00024        -0.038042      0.195325     -0.102345
Li	      2.19700      0.00520     -2.08200         0.386373     -0.196208      0.074547
Li	      4.47907      0.00008      0.01509         0.268266      0.097098     -0.290369
Ti	      4.47157      2.22815     -2.20850         0.365763     -0.378806      0.154548
Ti	      2.30286     -2.13347      0.05096         0.222698     -0.803592     -1.017174
Ti	      4.48700     -2.14465     -2.15116        -0.103009      0.355821      0.109613
Ti	      6.71114      0.00828     -2.19269        -0.274484     -0.042357      0.752777
O	      4.47190     -2.22653      0.03881        -0.411140      0.813745     -0.228693
O	      6.71743      0.12152     -0.07856        -0.312326      0.917751     -1.218774
O	      2.23989     -0.12096      0.10760         0.938175     -0.188173      0.477058
O	      4.48650      2.22704     -0.00941         0.862729     -0.485294     -0.270187
O	      6.72173     -2.24174     -2.15790        -0.431946      1.066832      0.215740
O	      8.95752     -0.00404     -2.19512        -1.789307      0.041576     -0.010152
O	      4.46482      0.02043     -2.19038         1.153653     -0.217863      0.608594
O	      6.70056      2.25809     -2.22697        -0.478066     -1.287690      0.809726
