# total energy = -118.74109816 eV
 
CRYSTAL
PRIMVEC
2.178975 4.299218 2.139235 
4.349364 -4.310447 0.031075 
4.334160 0.015870 -4.286051 
PRIMCOORD
16 1
Li	      0.29822      0.00653     -0.03888        -0.410093      0.122155     -0.064862
Li	      2.43496      2.06900     -0.00009        -0.033961      0.215136     -0.105152
Li	      2.21827      0.00525     -2.10217         0.439896     -0.222862      0.083189
Li	      4.52245      0.00008      0.01524         0.302040      0.107286     -0.321046
Ti	      4.51488      2.24973     -2.22989         0.404075     -0.397345      0.132449
Ti	      2.33569     -2.13337      0.06179         0.224512     -0.831610     -1.114260
Ti	      4.53046     -2.16542     -2.17199        -0.155077      0.378879      0.088056
Ti	      6.77614      0.00836     -2.21392        -0.328016     -0.047370      0.801286
O	      4.51522     -2.24809      0.03919        -0.474951      0.918402     -0.200154
O	      6.78249      0.12270     -0.07932        -0.352575      1.038808     -1.321586
O	      2.26158     -0.12213      0.10864         1.066486     -0.199075      0.515861
O	      4.52996      2.24861     -0.00950         0.966940     -0.553592     -0.302308
O	      6.78684     -2.26345     -2.17880        -0.455256      1.149182      0.228121
O	      9.04428     -0.00408     -2.21638        -1.988058     -0.018661     -0.011146
O	      4.50807      0.02063     -2.21159         1.266188     -0.241342      0.681621
O	      6.76545      2.27997     -2.24854        -0.472149     -1.417991      0.909931
