# total energy = -118.29672194 eV
 
CRYSTAL
PRIMVEC
2.189451 4.319888 2.149519 
4.370274 -4.331170 0.031225 
4.354997 0.015946 -4.306657 
PRIMCOORD
16 1
Li	      0.33263      0.00654     -0.02878        -0.465702      0.134105     -0.061061
Li	      2.47943      2.06812      0.00006        -0.031322      0.238797     -0.107755
Li	      2.23965      0.00530     -2.12243         0.490668     -0.250194      0.093637
Li	      4.56604      0.00008      0.01538         0.333232      0.118690     -0.350053
Ti	      4.55840      2.27142     -2.25139         0.437433     -0.408649      0.102684
Ti	      2.36873     -2.13316      0.07271         0.226586     -0.836479     -1.208859
Ti	      4.57412     -2.18629     -2.19293        -0.219242      0.389618      0.080369
Ti	      6.84144      0.00844     -2.23526        -0.385161     -0.053229      0.842149
O	      4.55873     -2.26977      0.03956        -0.533930      1.017304     -0.156674
O	      6.84786      0.12388     -0.08008        -0.391958      1.165925     -1.416993
O	      2.28338     -0.12331      0.10968         1.192157     -0.208769      0.555391
O	      4.57362      2.27028     -0.00959         1.063568     -0.616164     -0.339371
O	      6.85225     -2.28527     -2.19979        -0.463867      1.225685      0.230827
O	      9.13145     -0.00412     -2.23775        -2.178019     -0.097891     -0.012072
O	      4.55152      0.02083     -2.23291         1.374576     -0.270098      0.745697
O	      6.83066      2.30194     -2.27022        -0.449020     -1.548652      1.002085
