# total energy = -117.81956700 eV
 
CRYSTAL
PRIMVEC
2.199927 4.340557 2.159804 
4.391185 -4.351893 0.031374 
4.375834 0.016022 -4.327263 
PRIMCOORD
16 1
Li	      0.36736      0.00655     -0.01856        -0.517219      0.141344     -0.059278
Li	      2.52423      2.06713      0.00021        -0.024914      0.256413     -0.106694
Li	      2.26113      0.00535     -2.14279         0.545756     -0.276754      0.105244
Li	      4.60984      0.00008      0.01553         0.363375      0.127216     -0.375564
Ti	      4.60212      2.29321     -2.27299         0.464291     -0.417813      0.060410
Ti	      2.40197     -2.13285      0.08374         0.230123     -0.802596     -1.290311
Ti	      4.61800     -2.20726     -2.21397        -0.283964      0.380115      0.069193
Ti	      6.90707      0.00852     -2.25670        -0.450511     -0.063311      0.870459
O	      4.60246     -2.29154      0.03994        -0.587027      1.120052     -0.106492
O	      6.91355      0.12507     -0.08085        -0.433504      1.300729     -1.492009
O	      2.30528     -0.12449      0.11074         1.317582     -0.218682      0.580226
O	      4.61749      2.29206     -0.00968         1.153907     -0.678364     -0.377470
O	      6.91798     -2.30719     -2.22090        -0.468841      1.289891      0.240458
O	      9.21904     -0.00416     -2.25921        -2.359975     -0.188105     -0.018615
O	      4.59518      0.02103     -2.25433         1.478402     -0.298931      0.811468
O	      6.89619      2.32402     -2.29199        -0.427481     -1.671204      1.088975
