# total energy = -115.38105382 eV
 
CRYSTAL
PRIMVEC
1.992965 3.935494 1.993190 
3.939489 -3.910114 -0.004202 
3.943596 -0.000067 -3.943873 
PRIMCOORD
16 1
Li	      5.68901      0.02624      1.83397         0.326646      0.002998      1.252768
Li	      5.57715     -1.84450      0.05161         0.293328     -1.250342      0.663310
Li	      3.72726      1.90726      1.85801        -0.180556      0.816426      0.552878
Li	      3.77518     -1.88015     -1.84096        -0.580707     -0.330672     -0.513283
Ti	      7.51740      0.02511      0.00398         2.922017     -0.636470      1.707531
Ti	      7.51125     -1.84400     -1.88223         2.567091     -2.772048     -1.525115
Ti	      3.77204      0.02169      0.02274        -1.229006      0.234351      1.169765
Ti	      5.61032      0.00478     -1.88539         0.448775      0.968329     -2.874213
O	      3.74404     -1.77935      0.06105        -0.702623     -4.097119     -0.037887
O	      5.64621      0.01910     -0.00977         0.792478      0.193017      3.628456
O	      1.89678      0.00724     -0.01304        -3.613685      0.017806      0.239869
O	      3.75137      1.87393     -0.00316        -0.564997      3.363012      2.227058
O	      5.63643     -1.84732     -1.86474        -1.694157     -3.081757     -0.635987
O	      7.52862      0.05566     -1.85217         3.586840      2.432714     -2.701629
O	      3.73839     -0.02879     -1.89553        -3.166068      0.193807     -2.483225
O	      5.57247      1.80601     -1.85732         0.794621      3.945948     -0.670295
