# total energy = -116.49975728 eV
 
CRYSTAL
PRIMVEC
2.003454 3.956207 2.003680 
3.960223 -3.930694 -0.004224 
3.964352 -0.000067 -3.964630 
PRIMCOORD
16 1
Li	      5.74905      0.02651      1.85333         0.296032      0.005754      1.095459
Li	      5.63600     -1.86396      0.05215         0.242596     -1.092857      0.570150
Li	      3.76660      1.92739      1.87763        -0.166392      0.713496      0.473892
Li	      3.81502     -1.89999     -1.86039        -0.492534     -0.268066     -0.442479
Ti	      7.59673      0.02538      0.00402         2.504859     -0.556706      1.369353
Ti	      7.59052     -1.86346     -1.90209         2.194230     -2.394757     -1.284382
Ti	      3.81185      0.02191      0.02298        -1.045253      0.193824      0.968265
Ti	      5.66954      0.00483     -1.90529         0.396134      0.822133     -2.426446
O	      3.78355     -1.79812      0.06170        -0.610205     -3.497918     -0.089110
O	      5.70580      0.01930     -0.00987         0.701368      0.150381      3.156264
O	      1.91680      0.00732     -0.01318        -3.131510      0.014933      0.197126
O	      3.79096      1.89371     -0.00320        -0.529954      2.869162      1.954067
O	      5.69592     -1.86682     -1.88442        -1.443471     -2.582343     -0.542349
O	      7.60808      0.05625     -1.87172         3.093110      2.093416     -2.288702
O	      3.77784     -0.02909     -1.91554        -2.727617      0.152199     -2.125467
O	      5.63128      1.82507     -1.87693         0.718607      3.377349     -0.585640
