# total energy = -117.45890192 eV
 
CRYSTAL
PRIMVEC
2.013944 3.976920 2.014171 
3.980957 -3.951273 -0.004247 
3.985108 -0.000068 -3.985387 
PRIMCOORD
16 1
Li	      5.80941      0.02679      1.87279         0.263518      0.001646      0.948094
Li	      5.69517     -1.88353      0.05270         0.198019     -0.945434      0.485168
Li	      3.80614      1.94762      1.89734        -0.149575      0.621222      0.403033
Li	      3.85508     -1.91994     -1.87992        -0.413144     -0.210887     -0.374269
Ti	      7.67649      0.02564      0.00406         2.133945     -0.461968      1.089197
Ti	      7.67021     -1.88302     -1.92206         1.851697     -2.064676     -1.069571
Ti	      3.85187      0.02214      0.02322        -0.881855      0.155797      0.791643
Ti	      5.72906      0.00488     -1.92529         0.332412      0.683811     -2.031605
O	      3.82328     -1.81700      0.06234        -0.521872     -2.944573     -0.122673
O	      5.76570      0.01951     -0.00997         0.613167      0.106810      2.707087
O	      1.93692      0.00740     -0.01332        -2.686714      0.014507      0.154376
O	      3.83076      1.91359     -0.00323        -0.486627      2.416126      1.687402
O	      5.75572     -1.88641     -1.90421        -1.214137     -2.129863     -0.461049
O	      7.68795      0.05685     -1.89137         2.635199      1.777402     -1.898261
O	      3.81750     -0.02940     -1.93565        -2.325186      0.110383     -1.798794
O	      5.69040      1.84423     -1.89663         0.651153      2.869697     -0.509780
