# total energy = -93.23144703 eV
 
CRYSTAL
PRIMVEC
2.024393 4.181265 2.024213 
2.063545 -4.220848 2.063298 
4.107077 -0.000060 -4.106675 
PRIMCOORD
16 1
Li	      4.15065     -4.21753     -0.02361        -0.007227     -0.002237      0.008688
Li	      6.12387     -0.01976     -2.03472         0.007801      0.000398     -0.006267
Li	      2.08832     -2.10624     -0.02412        -0.004380     -0.004145      0.007000
Li	      6.10992      2.07213      0.00003         0.001098     -0.000856      0.006122
Mn	      6.15234     -4.21979     -2.02406         0.013274      0.007567     -0.021052
Mn	      2.05055      2.09143     -0.02456         0.003869      0.005258     -0.018364
Ni	      4.08106      2.09160     -2.05542         0.014967      0.001242     -0.019267
Ni	      4.11594     -0.01879     -0.02672        -0.008730     -0.002912      0.009069
O	      6.24146     -0.03161     -0.02640         0.099306      0.070141      0.002293
O	      3.96630      1.97791     -0.01434        -0.050972      0.142718      0.101782
O	      4.11504     -0.00617     -2.15231        -0.002695     -0.066656     -0.099479
O	      4.09121     -0.19149      2.11125        -0.016458     -0.039962      0.090802
O	      4.10325     -2.01595      0.12244        -0.099045     -0.141734      0.055365
O	      2.04310      2.23770      1.93782         0.104280      0.025474     -0.029102
O	      1.97708      0.15362     -0.00205        -0.087394      0.036696      0.016553
O	      2.15117     -2.27460      2.04561         0.032307     -0.030994     -0.104143
