# total energy = -118.27042292 eV
 
CRYSTAL
PRIMVEC
2.024433 3.997633 2.024661 
4.001691 -3.971853 -0.004269 
4.005863 -0.000068 -4.006144 
PRIMCOORD
16 1
Li	      5.87008      0.02707      1.89234         0.228925     -0.000258      0.804625
Li	      5.75466     -1.90320      0.05325         0.153555     -0.797601      0.409558
Li	      3.84589      1.96796      1.91715        -0.134293      0.530196      0.339609
Li	      3.89534     -1.93999     -1.89956        -0.336618     -0.162774     -0.315164
Ti	      7.75666      0.02591      0.00410         1.801085     -0.367007      0.851352
Ti	      7.75032     -1.90269     -1.94214         1.536087     -1.757965     -0.873786
Ti	      3.89210      0.02237      0.02346        -0.732944      0.122048      0.636282
Ti	      5.78889      0.00494     -1.94540         0.273078      0.556160     -1.675944
O	      3.86321     -1.83598      0.06299        -0.445096     -2.435813     -0.138285
O	      5.82592      0.01971     -0.01008         0.534070      0.074324      2.285325
O	      1.95715      0.00747     -0.01346        -2.272186      0.011859      0.112302
O	      3.87077      1.93357     -0.00327        -0.441286      2.001082      1.426820
O	      5.81582     -1.90611     -1.92409        -1.010222     -1.728349     -0.386573
O	      7.76824      0.05744     -1.91112         2.215049      1.483837     -1.548411
O	      3.85737     -0.02970     -1.95586        -1.944684      0.076964     -1.493686
O	      5.74983      1.86349     -1.91644         0.575480      2.393297     -0.434023
