# total energy = -119.48976241 eV
 
CRYSTAL
PRIMVEC
2.045412 4.039059 2.045642 
4.043159 -4.013012 -0.004313 
4.047375 -0.000069 -4.047659 
PRIMCOORD
16 1
Li	      5.99237      0.02763      1.93177         0.167090     -0.000595      0.546372
Li	      5.87454     -1.94285      0.05436         0.094522     -0.534623      0.266301
Li	      3.92602      2.00896      1.95709        -0.100040      0.355117      0.225692
Li	      3.97649     -1.98041     -1.93913        -0.213136     -0.084953     -0.200422
Ti	      7.91826      0.02645      0.00419         1.186453     -0.223166      0.470322
Ti	      7.91177     -1.94233     -1.98260         0.988429     -1.172423     -0.534315
Ti	      3.97318      0.02284      0.02395        -0.466137      0.067281      0.384714
Ti	      5.90948      0.00504     -1.98592         0.173777      0.348634     -1.058830
O	      3.94368     -1.87423      0.06431        -0.299405     -1.543125     -0.128952
O	      5.94729      0.02012     -0.01029         0.382167      0.027429      1.518555
O	      1.99793      0.00763     -0.01374        -1.525205      0.005688      0.039465
O	      3.95141      1.97385     -0.00333        -0.334503      1.270455      0.946386
O	      5.93698     -1.94582     -1.96418        -0.648411     -1.053116     -0.257744
O	      7.93007      0.05864     -1.95094         1.471591      0.963730     -0.945582
O	      3.93773     -0.03032     -1.99661        -1.282435      0.034847     -0.973595
O	      5.86962      1.90231     -1.95637         0.405242      1.538821     -0.298368
