# total energy = -119.91667499 eV
 
CRYSTAL
PRIMVEC
2.055901 4.059773 2.056133 
4.063894 -4.033592 -0.004335 
4.068131 -0.000069 -4.068416 
PRIMCOORD
16 1
Li	      6.05398      0.02792      1.95163         0.135507     -0.000486      0.422407
Li	      5.93495     -1.96283      0.05492         0.067038     -0.416617      0.205637
Li	      3.96638      2.02962      1.97722        -0.084123      0.277853      0.174664
Li	      4.01738     -2.00077     -1.95907        -0.159968     -0.057002     -0.150525
Ti	      7.99968      0.02672      0.00423         0.907173     -0.169991      0.327346
Ti	      7.99313     -1.96230     -2.00298         0.755090     -0.900682     -0.393052
Ti	      4.01404      0.02308      0.02420        -0.349983      0.045142      0.285210
Ti	      5.97025      0.00509     -2.00634         0.130452      0.264770     -0.797810
O	      3.98424     -1.89350      0.06497        -0.232235     -1.152277     -0.107174
O	      6.00845      0.02033     -0.01039         0.313795      0.013427      1.177018
O	      2.01847      0.00771     -0.01388        -1.189055      0.008393      0.009353
O	      3.99204      1.99415     -0.00337        -0.272298      0.953284      0.722313
O	      5.99803     -1.96584     -1.98437        -0.479111     -0.774699     -0.197776
O	      8.01162      0.05923     -1.97100         1.136118      0.726902     -0.695467
O	      3.97822     -0.03064     -2.01714        -0.984922      0.025381     -0.746617
O	      5.92997      1.92187     -1.97648         0.306522      1.156602     -0.235529
