# total energy = -120.44908622 eV
 
CRYSTAL
PRIMVEC
2.076879 4.101199 2.077114 
4.105362 -4.074751 -0.004379 
4.109642 -0.000070 -4.109930 
PRIMCOORD
16 1
Li	      6.17817      0.02849      1.99167         0.071496     -0.001998      0.198745
Li	      6.05669     -2.00309      0.05604         0.029730     -0.195500      0.093325
Li	      4.04774      2.07125      2.01778        -0.052305      0.128851      0.082936
Li	      4.09978     -2.04182     -1.99925        -0.069980     -0.018225     -0.059388
Ti	      8.16377      0.02727      0.00432         0.411696     -0.078303      0.132809
Ti	      8.15708     -2.00255     -2.04407         0.361323     -0.413451     -0.175360
Ti	      4.09637      0.02355      0.02469        -0.148908      0.009452      0.133710
Ti	      6.09272      0.00519     -2.04750         0.047331      0.129388     -0.361274
O	      4.06597     -1.93234      0.06630        -0.103817     -0.473125     -0.032948
O	      6.13169      0.02074     -0.01061         0.185938     -0.007498      0.554712
O	      2.05987      0.00787     -0.01416        -0.570787      0.011033     -0.038689
O	      4.07393      2.03505     -0.00344        -0.140877      0.415404      0.315500
O	      6.12107     -2.00616     -2.02508        -0.195124     -0.320611     -0.094142
O	      8.17596      0.06045     -2.01143         0.534532      0.316711     -0.278399
O	      4.05982     -0.03126     -2.05852        -0.470306      0.018820     -0.351009
O	      6.05161      1.96129     -2.01702         0.110059      0.479054     -0.120530
