# total energy = -120.57077365 eV
 
CRYSTAL
PRIMVEC
2.087369 4.121912 2.087604 
4.126096 -4.095330 -0.004401 
4.130398 -0.000070 -4.130688 
PRIMCOORD
16 1
Li	      6.24073      0.02878      2.01183         0.037384     -0.000146      0.095304
Li	      6.11802     -2.02338      0.05661         0.016658     -0.094880      0.041818
Li	      4.08873      2.09223      2.03821        -0.033776      0.060585      0.040683
Li	      4.14130     -2.06249     -2.01950        -0.031239     -0.006655     -0.017985
Ti	      8.24644      0.02755      0.00436         0.186841     -0.037141      0.072622
Ti	      8.23969     -2.02283     -2.06477         0.193756     -0.196282     -0.097196
Ti	      4.13786      0.02379      0.02494        -0.061913     -0.006298      0.077785
Ti	      6.15441      0.00525     -2.06823         0.005982      0.073990     -0.180616
O	      4.10714     -1.95191      0.06697        -0.045977     -0.180166      0.016615
O	      6.19378      0.02095     -0.01071         0.123725     -0.012682      0.267795
O	      2.08073      0.00795     -0.01431        -0.282658      0.012236     -0.056471
O	      4.11518      2.05566     -0.00347        -0.070469      0.188152      0.132442
O	      6.18305     -2.02647     -2.04559        -0.072160     -0.139551     -0.045881
O	      8.25875      0.06106     -2.03180         0.266964      0.138058     -0.108164
O	      4.10094     -0.03158     -2.07936        -0.245329      0.020691     -0.176020
O	      6.11289      1.98115     -2.03745         0.012212      0.180089     -0.062731
