# total energy = -120.55993732 eV
 
CRYSTAL
PRIMVEC
2.108347 4.163338 2.108585 
4.167564 -4.136489 -0.004446 
4.171909 -0.000071 -4.172202 
PRIMCOORD
16 1
Li	      0.09089      0.00251     -0.05166        -0.031333     -0.003578     -0.101252
Li	      2.07405      2.07224      0.06220         0.001431      0.091486     -0.048784
Li	      4.17133      2.13449      2.07938        -0.005780     -0.065570     -0.042428
Li	      4.22496     -2.10415     -2.06030         0.033050      0.009633      0.052992
Ti	      2.13712      0.00125     -2.09969        -0.234862      0.037681      0.002368
Ti	      4.23858      2.07279     -2.10203        -0.083763      0.187035     -0.003510
Ti	      4.22145      0.02427      0.02545         0.104603     -0.035325      0.011655
Ti	      6.27874      0.00535     -2.11002        -0.063282     -0.013768      0.125499
O	      4.19011     -1.99134      0.06832         0.072527      0.328189      0.144918
O	      6.31891      0.02137     -0.01093        -0.003103     -0.005861     -0.245815
O	      2.12276      0.00811     -0.01460         0.262562      0.016549     -0.069966
O	      4.19831      2.09719     -0.00354         0.071473     -0.190908     -0.199306
O	      6.30796     -2.06741     -2.08691         0.132344      0.134633      0.044819
O	      8.42559      0.06230     -2.07284        -0.219926     -0.179631      0.158519
O	      4.18378     -0.03222     -2.12137         0.144565      0.031716      0.135614
O	      6.23638      2.02118     -2.07861        -0.180507     -0.342280      0.034678
