# total energy = -120.44090370 eV
 
CRYSTAL
PRIMVEC
2.118837 4.184051 2.119075 
4.188299 -4.157069 -0.004468 
4.192665 -0.000071 -4.192959 
PRIMCOORD
16 1
Li	      0.12318      0.00267     -0.04166        -0.072612     -0.006626     -0.193500
Li	      2.11557      2.07223      0.06280        -0.002534      0.180232     -0.089804
Li	      2.09410     -2.02827     -0.01895         0.007462     -0.119208     -0.076777
Li	      4.26711     -2.12514     -2.08085         0.063434      0.005524      0.084284
Ti	      2.18981      0.00140     -2.11011        -0.441463      0.073821     -0.016047
Ti	      4.30170      2.07278     -2.12303        -0.200170      0.356224      0.013803
Ti	      4.26356      0.02451      0.02570         0.184654     -0.050133      0.001037
Ti	      6.34138      0.00541     -2.13106        -0.090453     -0.047331      0.256080
O	      4.23191     -2.01120      0.06901         0.125212      0.549606      0.223853
O	      6.38194      0.02159     -0.01104        -0.063426     -0.000068     -0.475563
O	      2.14394      0.00819     -0.01474         0.521394      0.019331     -0.072960
O	      4.24019      2.11811     -0.00358         0.144256     -0.346526     -0.347617
O	      6.37088     -2.08803     -2.10773         0.217829      0.234612      0.081736
O	      8.50963      0.06292     -2.09352        -0.431267     -0.317186      0.251861
O	      4.22552     -0.03254     -2.14253         0.319906      0.040773      0.278264
O	      6.29859      2.04134     -2.09935        -0.282223     -0.573046      0.081350
