# total energy = -120.25373470 eV
 
CRYSTAL
PRIMVEC
2.129326 4.204764 2.129566 
4.209033 -4.177648 -0.004490 
4.213421 -0.000072 -4.213717 
PRIMCOORD
16 1
Li	      0.15578      0.00283     -0.03155        -0.113451     -0.005743     -0.281222
Li	      2.15741      2.07211      0.06340        -0.005281      0.261451     -0.123658
Li	      2.12543     -2.02758     -0.00860         0.020682     -0.174100     -0.112289
Li	      4.30946     -2.14624     -2.10150         0.087648      0.000463      0.115460
Ti	      2.24293      0.00155     -2.12054        -0.645586      0.106753     -0.027787
Ti	      4.36523      2.07268     -2.14412        -0.300436      0.512860      0.014527
Ti	      4.30588      0.02475      0.02596         0.265623     -0.065177      0.006892
Ti	      6.40432      0.00546     -2.15221        -0.108546     -0.073738      0.374644
O	      4.27391     -2.03117      0.06969         0.180231      0.750263      0.308926
O	      6.44528      0.02181     -0.01115        -0.134276      0.011323     -0.693665
O	      2.16522      0.00827     -0.01489         0.773844      0.023259     -0.068718
O	      4.28228      2.13913     -0.00361         0.217074     -0.482318     -0.487345
O	      6.43411     -2.10875     -2.12864         0.289239      0.311461      0.117774
O	      8.59409      0.06354     -2.11430        -0.629810     -0.443674      0.323721
O	      4.26746     -0.03287     -2.16380         0.478560      0.049140      0.406889
O	      6.36111      2.06160     -2.12018        -0.375515     -0.782224      0.125852
