# total energy = -120.00365960 eV
 
CRYSTAL
PRIMVEC
2.139815 4.225478 2.140056 
4.229767 -4.198228 -0.004512 
4.234177 -0.000072 -4.234474 
PRIMCOORD
16 1
Li	      0.18869      0.00299     -0.02134        -0.155067     -0.008729     -0.367809
Li	      2.19955      2.07190      0.06401        -0.005458      0.334595     -0.156729
Li	      2.15697     -2.02679      0.00186         0.031635     -0.226732     -0.148968
Li	      4.35202     -2.16743     -2.12225         0.112077     -0.005080      0.144458
Ti	      2.29646      0.00170     -2.13096        -0.853297      0.136515     -0.036794
Ti	      4.42918      2.07247     -2.16532        -0.388762      0.658935     -0.001727
Ti	      4.34840      0.02500      0.02621         0.343745     -0.080533      0.026985
Ti	      6.46757      0.00551     -2.17347        -0.117494     -0.092498      0.483488
O	      4.31612     -2.05122      0.07038         0.238056      0.932634      0.399249
O	      6.50894      0.02202     -0.01126        -0.207943      0.026431     -0.894080
O	      2.18661      0.00835     -0.01503         1.014258      0.025322     -0.062864
O	      4.32457      2.16026     -0.00365         0.293743     -0.597711     -0.617622
O	      6.49766     -2.12959     -2.14967         0.351795      0.369087      0.152997
O	      8.67898      0.06417     -2.13518        -0.807676     -0.557819      0.377375
O	      4.30961     -0.03319     -2.18516         0.618611      0.065170      0.534596
O	      6.42393      2.08196     -2.14112        -0.468223     -0.979587      0.167444
