# total energy = -119.69606985 eV
 
CRYSTAL
PRIMVEC
2.150304 4.246191 2.150547 
4.250501 -4.218808 -0.004534 
4.254933 -0.000072 -4.255231 
PRIMCOORD
16 1
Li	      0.22192      0.00315     -0.01104        -0.196140     -0.011719     -0.451425
Li	      2.24201      2.07158      0.06461        -0.006865      0.405171     -0.187139
Li	      2.18870     -2.02590      0.01242         0.040623     -0.275321     -0.182673
Li	      4.39479     -2.18873     -2.14311         0.133330     -0.015024      0.170173
Ti	      2.35040      0.00185     -2.14138        -1.062827      0.165562     -0.042149
Ti	      4.49354      2.07216     -2.18662        -0.466768      0.793367     -0.033451
Ti	      4.39114      0.02525      0.02647         0.420211     -0.096596      0.061132
Ti	      6.53113      0.00556     -2.19483        -0.118177     -0.104060      0.581778
O	      4.35854     -2.07138      0.07107         0.295059      1.093957      0.497358
O	      6.57291      0.02223     -0.01137        -0.274088      0.042650     -1.074986
O	      2.20810      0.00843     -0.01518         1.242440      0.031165     -0.054093
O	      4.36707      2.18149     -0.00368         0.367812     -0.697889     -0.735612
O	      6.56152     -2.15051     -2.17080         0.406106      0.403038      0.186998
O	      8.76427      0.06480     -2.15616        -0.971426     -0.663174      0.408884
O	      4.35196     -0.03352     -2.20664         0.751141      0.081523      0.648682
O	      6.48706      2.10243     -2.16216        -0.560432     -1.152652      0.206522
