# total energy = -119.33550416 eV
 
CRYSTAL
PRIMVEC
2.160794 4.266904 2.161037 
4.271235 -4.239387 -0.004556 
4.275688 -0.000073 -4.275988 
PRIMCOORD
16 1
Li	      0.25547      0.00332     -0.00062        -0.243129     -0.014406     -0.532192
Li	      2.28476      2.07116      0.06522        -0.001534      0.475150     -0.217451
Li	      2.22065     -2.02490      0.02308         0.049231     -0.320323     -0.215480
Li	      4.43777     -2.21014     -2.16407         0.151987     -0.025904      0.195242
Ti	      2.40477      0.00200     -2.15181        -1.272529      0.193018     -0.043761
Ti	      4.55833      2.07174     -2.20803        -0.533529      0.914230     -0.081809
Ti	      4.43408      0.02549      0.02673         0.494698     -0.114170      0.107922
Ti	      6.59500      0.00562     -2.21629        -0.109524     -0.109084      0.672183
O	      4.40117     -2.09164      0.07177         0.356171      1.246242      0.602381
O	      6.63719      0.02245     -0.01148        -0.342853      0.059545     -1.244443
O	      2.22969      0.00852     -0.01533         1.459671      0.035947     -0.039932
O	      4.40978      2.20283     -0.00372         0.439781     -0.779487     -0.846983
O	      6.62569     -2.17154     -2.19203         0.451661      0.416672      0.219463
O	      8.84998      0.06544     -2.17725        -1.120314     -0.756619      0.421164
O	      4.39452     -0.03384     -2.22822         0.872870      0.097899      0.757618
O	      6.55051      2.12298     -2.18331        -0.652657     -1.318711      0.246077
