# total energy = -118.47692464 eV
 
CRYSTAL
PRIMVEC
2.181772 4.308330 2.182018 
4.312703 -4.280546 -0.004600 
4.317200 -0.000073 -4.317503 
PRIMCOORD
16 1
Li	      0.32351      0.00366      0.02051        -0.336981     -0.023328     -0.687935
Li	      2.37122      2.07001      0.06645         0.011388      0.599092     -0.265212
Li	      2.28516     -2.02258      0.04472         0.061691     -0.404838     -0.281988
Li	      4.52436     -2.25327     -2.20630         0.189634     -0.061282      0.237661
Ti	      2.51474      0.00231     -2.17265        -1.703991      0.249628     -0.015948
Ti	      4.68914      2.07061     -2.25115        -0.644802      1.098798     -0.233715
Ti	      4.52060      0.02599      0.02725         0.600799     -0.152827      0.224249
Ti	      6.72368      0.00573     -2.25954        -0.032997     -0.097955      0.821232
O	      4.48704     -2.13245      0.07317         0.475076      1.524945      0.844486
O	      6.76670      0.02289     -0.01171        -0.495133      0.103181     -1.551858
O	      2.27319      0.00868     -0.01563         1.853826      0.043022      0.012285
O	      4.49583      2.24581     -0.00379         0.588669     -0.888295     -1.043906
O	      6.75497     -2.21392     -2.23480         0.524875      0.411447      0.287791
O	      9.02266      0.06671     -2.21973        -1.375814     -0.930847      0.382995
O	      4.48026     -0.03450     -2.27170         1.113860      0.151913      0.953115
O	      6.67832      2.16441     -2.22591        -0.830101     -1.622655      0.316746
