# total energy = -117.98504945 eV
 
CRYSTAL
PRIMVEC
2.192262 4.329043 2.192509 
4.333438 -4.301126 -0.004623 
4.337956 -0.000074 -4.338260 
PRIMCOORD
16 1
Li	      0.35800      0.00383      0.03122        -0.388623     -0.027877     -0.760961
Li	      2.41491      2.06929      0.06707         0.016038      0.656340     -0.290883
Li	      2.31773     -2.02126      0.05569         0.067660     -0.444533     -0.314484
Li	      4.56797     -2.27498     -2.22756         0.203643     -0.079389      0.257585
Ti	      2.57036      0.00246     -2.18307        -1.922060      0.268322     -0.022346
Ti	      4.75517      2.06988     -2.27287        -0.690676      1.196127     -0.314150
Ti	      4.56417      0.02624      0.02751         0.683361     -0.165391      0.296608
Ti	      6.78849      0.00579     -2.28132        -0.014517     -0.088183      0.887077
O	      4.53029     -2.15301      0.07387         0.539150      1.630279      0.958905
O	      6.83191      0.02311     -0.01182        -0.560386      0.127253     -1.686601
O	      2.29511      0.00876     -0.01578         2.048758      0.045848      0.052584
O	      4.53916      2.26746     -0.00383         0.657957     -0.920640     -1.121412
O	      6.82008     -2.23526     -2.25634         0.558388      0.388801      0.321771
O	      9.10963      0.06736     -2.24113        -1.497330     -0.999016      0.348995
O	      4.52345     -0.03483     -2.29360         1.213044      0.169188      1.038525
O	      6.74269      2.18527     -2.24736        -0.914409     -1.757128      0.348787
