# total energy = -117.45574449 eV
 
CRYSTAL
PRIMVEC
2.202751 4.349756 2.202999 
4.354172 -4.321705 -0.004645 
4.358711 -0.000074 -4.359017 
PRIMCOORD
16 1
Li	      0.39281      0.00400      0.04204        -0.442483     -0.034241     -0.833571
Li	      2.45890      2.06846      0.06769         0.024950      0.711461     -0.309955
Li	      2.35050     -2.01984      0.06676         0.069611     -0.480819     -0.347731
Li	      4.61178     -2.29680     -2.24893         0.216586     -0.096258      0.277191
Ti	      2.62638      0.00263     -2.19349        -2.137187      0.297190     -0.026273
Ti	      4.82162      2.06906     -2.29470        -0.730530      1.273891     -0.410973
Ti	      4.60795      0.02649      0.02778         0.776139     -0.179763      0.367491
Ti	      6.85361      0.00584     -2.30320        -0.011424     -0.069759      0.947649
O	      4.57375     -2.17366      0.07458         0.605428      1.723774      1.077589
O	      6.89745      0.02333     -0.01193        -0.618917      0.152388     -1.813005
O	      2.31712      0.00885     -0.01593         2.240697      0.053188      0.104377
O	      4.58270      2.28920     -0.00386         0.731115     -0.935628     -1.195519
O	      6.88549     -2.25669     -2.27798         0.574333      0.346574      0.358751
O	      9.19701      0.06800     -2.26263        -1.604914     -1.058584      0.309984
O	      4.56684     -0.03517     -2.31560         1.301016      0.172927      1.116469
O	      6.80737      2.20623     -2.26892        -0.994420     -1.876343      0.377525
