# total energy = -115.81210417 eV
 
CRYSTAL
PRIMVEC
1.968938 3.985979 1.969430 
3.924124 -3.960357 -0.037903 
3.961494 -0.000526 -3.961478 
PRIMCOORD
16 1
Li	      0.10000     -0.03749      0.00309        -0.995600      0.018520      0.701630
Li	      1.87784      1.85587      0.09597        -1.043074      0.399252      0.732991
Li	      7.39386      1.94304     -1.91473         0.594835      0.265795     -0.564245
Li	      5.61646      0.04911     -2.00732        -0.047845      0.375578     -0.413328
Ti	      7.44310      0.02249     -0.08494         3.455862     -0.437525      1.271513
Ti	      7.44683     -1.87081     -1.95916         3.271503     -2.529967     -2.033888
Ti	      3.77624      0.01341      0.01180        -0.077304     -0.256324      2.208799
Ti	      3.77978     -1.88009     -1.86233        -1.941194     -2.113888     -1.914607
O	      3.75481     -1.87728     -0.03585        -0.523146     -3.256412      2.571865
O	      5.60283      0.01598     -0.01334         0.997210     -0.634234      1.274115
O	      1.96688      0.00588     -0.11108        -4.165608     -0.328642      1.017976
O	      3.73112      1.89925     -0.00382        -1.467046      3.011334      2.088913
O	      5.62026     -1.87352     -1.93426         0.227389     -0.157387     -0.523581
O	      7.46825      0.01983     -1.91174         1.443650      2.511258     -2.317933
O	      3.76383      0.00586     -1.90762        -0.674978      1.526272     -2.571342
O	      5.52796      1.89884     -1.80066         0.945345      1.606370     -1.528877
