# total energy = -116.86528932 eV
 
CRYSTAL
PRIMVEC
1.979301 4.006958 1.979796 
3.944778 -3.981201 -0.038103 
3.982344 -0.000529 -3.982328 
PRIMCOORD
16 1
Li	      0.10106     -0.03789      0.00312        -0.854147      0.012116      0.613204
Li	      1.89766      1.87546      0.09698        -0.902153      0.342607      0.640382
Li	      7.47190      1.96355     -1.93494         0.508124      0.229395     -0.497131
Li	      5.67573      0.04963     -2.02851        -0.047707      0.334534     -0.352395
Ti	      7.52165      0.02273     -0.08583         2.968749     -0.384263      0.998846
Ti	      7.52542     -1.89056     -1.97984         2.810163     -2.160804     -1.767130
Ti	      3.81609      0.01355      0.01192        -0.079475     -0.275191      1.841494
Ti	      3.81967     -1.89993     -1.88198        -1.590482     -1.761853     -1.608107
O	      3.79444     -1.89709     -0.03623        -0.461832     -2.792404      2.163496
O	      5.66196      0.01615     -0.01348         0.859309     -0.576576      1.112398
O	      1.98763      0.00594     -0.11226        -3.623527     -0.277540      0.933884
O	      3.77050      1.91929     -0.00386        -1.333279      2.577998      1.827773
O	      5.67958     -1.89330     -1.95467         0.203094     -0.098289     -0.441829
O	      7.54707      0.02004     -1.93192         1.255542      2.144615     -1.924436
O	      3.80355      0.00592     -1.92775        -0.586304      1.269840     -2.199652
O	      5.58630      1.91888     -1.81967         0.873925      1.415817     -1.340798
