# total energy = -117.76784517 eV
 
CRYSTAL
PRIMVEC
1.989663 4.027937 1.990161 
3.965431 -4.002045 -0.038302 
4.003194 -0.000531 -4.003178 
PRIMCOORD
16 1
Li	      0.10212     -0.03828      0.00316        -0.722130      0.006843      0.530673
Li	      1.91758      1.89515      0.09800        -0.777455      0.288459      0.547554
Li	      7.55034      1.98416     -1.95525         0.429579      0.193122     -0.431166
Li	      5.73532      0.05015     -2.04980        -0.042591      0.292063     -0.293744
Ti	      7.60062      0.02297     -0.08674         2.514236     -0.332548      0.768298
Ti	      7.60443     -1.91041     -2.00062         2.385665     -1.818857     -1.516422
Ti	      3.85616      0.01369      0.01205        -0.082807     -0.281084      1.516326
Ti	      3.85977     -1.91987     -1.90174        -1.280802     -1.443603     -1.333875
O	      3.83428     -1.91701     -0.03661        -0.403966     -2.364338      1.789405
O	      5.72140      0.01632     -0.01362         0.728659     -0.514166      0.960577
O	      2.00850      0.00600     -0.11343        -3.110377     -0.229705      0.841204
O	      3.81008      1.93944     -0.00390        -1.196539      2.178318      1.578227
O	      5.73921     -1.91318     -1.97520         0.186157     -0.057194     -0.370067
O	      7.62631      0.02026     -1.95220         1.081156      1.810011     -1.568170
O	      3.84348      0.00599     -1.94799        -0.504141      1.036717     -1.857958
O	      5.64495      1.93903     -1.83877         0.795356      1.235961     -1.160863
