# total energy = -119.16369538 eV
 
CRYSTAL
PRIMVEC
2.010389 4.069895 2.010892 
4.006738 -4.043733 -0.038701 
4.044894 -0.000537 -4.044877 
PRIMCOORD
16 1
Li	      0.10426     -0.03909      0.00322        -0.490135     -0.000757      0.378748
Li	      1.95774      1.93484      0.10005        -0.542212      0.196809      0.388929
Li	      7.70846      2.02571     -1.99620         0.286209      0.133028     -0.309450
Li	      5.85543      0.05120     -2.09273        -0.034482      0.215022     -0.201651
Ti	      7.75979      0.02345     -0.08855         1.701542     -0.237460      0.417476
Ti	      7.76368     -1.95042     -2.04252         1.638575     -1.219079     -1.067105
Ti	      3.93691      0.01398      0.01230        -0.085728     -0.262916      0.985640
Ti	      3.94060     -1.96008     -1.94157        -0.760423     -0.908576     -0.870218
O	      3.91458     -1.95715     -0.03738        -0.299999     -1.598449      1.156994
O	      5.84121      0.01666     -0.01390         0.496795     -0.386329      0.676655
O	      2.05056      0.00613     -0.11581        -2.168210     -0.152570      0.638489
O	      3.88987      1.98006     -0.00399        -0.897907      1.471440      1.107472
O	      5.85940     -1.95324     -2.01656         0.139679      0.000382     -0.244648
O	      7.78601      0.02068     -1.99308         0.763877      1.210089     -0.979690
O	      3.92397      0.00611     -1.98878        -0.362636      0.651133     -1.251352
O	      5.76316      1.97964     -1.87728         0.615056      0.888233     -0.826289
