# total energy = -119.67551097 eV
 
CRYSTAL
PRIMVEC
2.020752 4.090874 2.021257 
4.027391 -4.064577 -0.038901 
4.065744 -0.000540 -4.065727 
PRIMCOORD
16 1
Li	      0.10534     -0.03949      0.00325        -0.388881     -0.004671      0.309505
Li	      1.97798      1.95483      0.10109        -0.436214      0.154068      0.317257
Li	      7.78813      2.04665     -2.01683         0.227902      0.108755     -0.253959
Li	      5.91595      0.05173     -2.11436        -0.031127      0.173594     -0.161538
Ti	      7.84000      0.02369     -0.08947         1.343955     -0.193284      0.294266
Ti	      7.84392     -1.97057     -2.06363         1.310620     -0.964858     -0.865862
Ti	      3.97760      0.01412      0.01243        -0.086506     -0.234444      0.767316
Ti	      3.98133     -1.98034     -1.96164        -0.550840     -0.686762     -0.680446
O	      3.95504     -1.97738     -0.03776        -0.247193     -1.262666      0.891307
O	      5.90159      0.01683     -0.01405         0.394345     -0.319133      0.546681
O	      2.07176      0.00619     -0.11701        -1.746760     -0.115580      0.531779
O	      3.93008      2.00053     -0.00403        -0.743949      1.161677      0.892308
O	      5.91996     -1.97343     -2.03740         0.116187      0.011193     -0.188357
O	      7.86649      0.02089     -2.01369         0.616101      0.948927     -0.740102
O	      3.96453      0.00617     -2.00934        -0.295218      0.494745     -0.992807
O	      5.82273      2.00010     -1.89668         0.517576      0.728440     -0.667347
