# total energy = -120.07562495 eV
 
CRYSTAL
PRIMVEC
2.031115 4.111852 2.031623 
4.048044 -4.085421 -0.039100 
4.086594 -0.000543 -4.086577 
PRIMCOORD
16 1
Li	      0.10642     -0.03990      0.00329        -0.293689     -0.006547      0.244091
Li	      1.99831      1.97494      0.10213        -0.335743      0.116281      0.249669
Li	      7.86821      2.06770     -2.03757         0.171513      0.084484     -0.200377
Li	      5.97678      0.05227     -2.13610        -0.026872      0.138696     -0.125625
Ti	      7.92061      0.02393     -0.09039         1.016000     -0.151079      0.200514
Ti	      7.92458     -1.99084     -2.08485         1.011198     -0.737908     -0.679069
Ti	      4.01850      0.01427      0.01255        -0.084493     -0.195490      0.577768
Ti	      4.02227     -2.00070     -1.98181        -0.373230     -0.495799     -0.514272
O	      3.99570     -1.99772     -0.03815        -0.201588     -0.950295      0.657717
O	      5.96228      0.01701     -0.01420         0.298808     -0.244302      0.423589
O	      2.09306      0.00626     -0.11821        -1.349913     -0.086532      0.426637
O	      3.97049      2.02110     -0.00407        -0.591071      0.879009      0.688101
O	      5.98083     -1.99373     -2.05835         0.093720      0.011674     -0.142460
O	      7.94738      0.02110     -2.03439         0.482505      0.709455     -0.534951
O	      4.00530      0.00624     -2.03000        -0.232686      0.357673     -0.754051
O	      5.88260      2.02066     -1.91618         0.415540      0.570679     -0.517281
