# total energy = -120.37258101 eV
 
CRYSTAL
PRIMVEC
2.041478 4.132831 2.041988 
4.068697 -4.106265 -0.039300 
4.107443 -0.000545 -4.107427 
PRIMCOORD
16 1
Li	      0.10751     -0.04031      0.00332        -0.207376     -0.006799      0.181162
Li	      2.01876      1.99514      0.10317        -0.241260      0.080792      0.186446
Li	      7.94871      2.08885     -2.05841         0.116470      0.061731     -0.150917
Li	      6.03792      0.05280     -2.15796        -0.023496      0.103207     -0.096795
Ti	      8.00164      0.02418     -0.09131         0.710681     -0.109427      0.129830
Ti	      8.00565     -2.01121     -2.10618         0.733364     -0.529674     -0.507109
Ti	      4.05961      0.01441      0.01268        -0.081588     -0.150382      0.417170
Ti	      4.06342     -2.02117     -2.00208        -0.223740     -0.334123     -0.369385
O	      4.03658     -2.01815     -0.03854        -0.149064     -0.666137      0.451722
O	      6.02327      0.01718     -0.01434         0.215824     -0.170431      0.309374
O	      2.11448      0.00632     -0.11942        -0.973442     -0.061620      0.315861
O	      4.01111      2.04177     -0.00411        -0.439873      0.622485      0.492638
O	      6.04201     -2.01412     -2.07941         0.071118      0.008312     -0.097383
O	      8.02868      0.02132     -2.05520         0.356437      0.488743     -0.357962
O	      4.04627      0.00630     -2.05077        -0.173530      0.243564     -0.535505
O	      5.94278      2.04133     -1.93579         0.309476      0.419759     -0.369149
