# total energy = -120.57318220 eV
 
CRYSTAL
PRIMVEC
2.051840 4.153810 2.052353 
4.089351 -4.127109 -0.039499 
4.128293 -0.000548 -4.128277 
PRIMCOORD
16 1
Li	      0.10860     -0.04072      0.00336        -0.125761     -0.007750      0.122618
Li	      2.03931      2.01545      0.10422        -0.150718      0.047409      0.125407
Li	      8.02961      2.11010     -2.07937         0.068213      0.041231     -0.099200
Li	      6.09938      0.05333     -2.17992        -0.020412      0.070993     -0.069496
Ti	      8.08308      0.02442     -0.09224         0.426189     -0.069977      0.078299
Ti	      8.08713     -2.03167     -2.12762         0.479231     -0.335478     -0.352054
Ti	      4.10093      0.01456      0.01281        -0.070665     -0.104327      0.284396
Ti	      4.10477     -2.04174     -2.02246        -0.096952     -0.199191     -0.240317
O	      4.07767     -2.03870     -0.03894        -0.102422     -0.406754      0.271817
O	      6.08457      0.01735     -0.01449         0.131075     -0.100682      0.195530
O	      2.13599      0.00638     -0.12063        -0.616344     -0.037649      0.199787
O	      4.05193      2.06256     -0.00415        -0.287998      0.388230      0.309611
O	      6.10351     -2.03462     -2.10057         0.047762     -0.002775     -0.054078
O	      8.11040      0.02154     -2.07612         0.236532      0.294521     -0.207302
O	      4.08745      0.00637     -2.07164        -0.112792      0.145796     -0.336878
O	      6.00327      2.06211     -1.95549         0.195062      0.276403     -0.228137
