# total energy = -120.66709157 eV
 
CRYSTAL
PRIMVEC
2.082929 4.216747 2.083450 
4.151311 -4.189641 -0.040098 
4.190843 -0.000556 -4.190827 
PRIMCOORD
16 1
Li	      0.11192     -0.04196      0.00346         0.090698     -0.000584     -0.037878
Li	      2.10157      2.07698      0.10740         0.093335     -0.027605     -0.030985
Li	      4.08393      2.17509      2.04798        -0.061172     -0.014928      0.030451
Li	      6.28561      0.05496     -2.24648        -0.007139     -0.028397     -0.002572
Ti	      8.32988      0.02517     -0.09506        -0.294226      0.022790      0.048745
Ti	      8.33405     -2.09370     -2.19258        -0.150094      0.129020      0.040900
Ti	      4.22614      0.01500      0.01320        -0.018606      0.078408     -0.004910
Ti	      4.23011     -2.10408     -2.08421         0.128599      0.080468      0.029020
O	      4.20217     -2.10094     -0.04012         0.038703      0.250343     -0.119336
O	      6.27035      0.01789     -0.01493        -0.073136      0.124501     -0.102469
O	      2.20121      0.00658     -0.12432         0.331471      0.014376     -0.144134
O	      4.17565      2.12553     -0.00428         0.155351     -0.162769     -0.156762
O	      6.28987     -2.09674     -2.16471        -0.012208     -0.083299      0.037955
O	      8.35803      0.02220     -2.13951        -0.104462     -0.195953      0.090986
O	      4.21226      0.00656     -2.13489         0.036052     -0.056334      0.164261
O	      6.18657      2.12507     -2.01519        -0.153166     -0.130038      0.156728
