# total energy = -120.37231091 eV
 
CRYSTAL
PRIMVEC
2.103655 4.258704 2.104181 
4.192617 -4.231329 -0.040497 
4.232543 -0.000562 -4.232526 
PRIMCOORD
16 1
Li	      0.11415     -0.04280      0.00353         0.228768      0.004840     -0.137346
Li	      2.14360      2.11852      0.10955         0.237107     -0.065220     -0.118993
Li	      2.10406     -2.04012     -0.05736        -0.135125     -0.045967      0.107999
Li	      6.41131      0.05606     -2.29140        -0.001947     -0.085759      0.027026
Ti	      2.20020     -0.00170     -2.16065        -0.667587      0.051929      0.121972
Ti	      4.30811      2.09575     -2.19593        -0.467312      0.345517      0.254121
Ti	      4.31066      0.01531      0.01347         0.031983      0.242296     -0.122159
Ti	      4.31470     -2.14616     -2.12589         0.154752      0.178378      0.122513
O	      4.28620     -2.14296     -0.04093         0.136407      0.605065     -0.277473
O	      6.39576      0.01824     -0.01523        -0.181861      0.300308     -0.270697
O	      2.24524      0.00671     -0.12680         0.872652      0.033996     -0.363920
O	      4.25916      2.16804     -0.00436         0.425496     -0.424293     -0.407975
O	      6.41566     -2.13868     -2.20800        -0.049864     -0.178441      0.078004
O	      8.52519      0.02264     -2.18230        -0.323780     -0.456084      0.182461
O	      4.29650      0.00669     -2.17759         0.128792     -0.126369      0.421676
O	      6.31029      2.16757     -2.05550        -0.388479     -0.380197      0.382792
