# total energy = -119.84228992 eV
 
CRYSTAL
PRIMVEC
2.124380 4.300662 2.124911 
4.233924 -4.273017 -0.040896 
4.274243 -0.000567 -4.274226 
PRIMCOORD
16 1
Li	      0.11642     -0.04365      0.00359         0.376683      0.015700     -0.227411
Li	      2.18605      2.16047      0.11172         0.374706     -0.092745     -0.201317
Li	      2.20877     -2.03815     -0.07967        -0.206249     -0.075596      0.175079
Li	      6.53827      0.05718     -2.33678         0.003275     -0.137873      0.047707
Ti	      2.30641     -0.00146     -2.18290        -1.008439      0.086612      0.229180
Ti	      4.43513      2.09515     -2.23982        -0.725027      0.533999      0.411135
Ti	      4.39602      0.01560      0.01373         0.100207      0.395670     -0.168896
Ti	      4.40014     -2.18866     -2.16799         0.145731      0.196139      0.182341
O	      4.37108     -2.18539     -0.04174         0.234756      0.891350     -0.374358
O	      6.52240      0.01861     -0.01553        -0.281499      0.477888     -0.413286
O	      2.28969      0.00684     -0.12931         1.364841      0.045644     -0.569831
O	      4.34350      2.21097     -0.00445         0.694862     -0.612674     -0.621496
O	      6.54270     -2.18102     -2.25172        -0.080814     -0.296085      0.108666
O	      8.69400      0.02309     -2.22551        -0.554466     -0.656709      0.203736
O	      4.38158      0.00682     -2.22071         0.200707     -0.153148      0.637773
O	      6.43524      2.21050     -2.09620        -0.639274     -0.618173      0.580977
