# total energy = -119.10980950 eV
 
CRYSTAL
PRIMVEC
2.145106 4.342620 2.145642 
4.275230 -4.314705 -0.041294 
4.315943 -0.000573 -4.315926 
PRIMCOORD
16 1
Li	      0.11870     -0.04450      0.00367         0.548728      0.028062     -0.307464
Li	      2.22891      2.20283      0.11391         0.502065     -0.113468     -0.276256
Li	      2.31511     -2.03575     -0.10241        -0.271263     -0.103554      0.236049
Li	      6.66647      0.05830     -2.38260         0.007882     -0.188560      0.059261
Ti	      2.41427     -0.00122     -2.20517        -1.335671      0.133005      0.354789
Ti	      4.56380      2.09414     -2.28414        -0.927685      0.703036      0.508949
Ti	      4.48222      0.01592      0.01400         0.179574      0.517313     -0.161952
Ti	      4.48642     -2.23157     -2.21050         0.127186      0.139190      0.217977
O	      4.45678     -2.22824     -0.04255         0.334661      1.132235     -0.413714
O	      6.65029      0.01897     -0.01584        -0.383767      0.661883     -0.543817
O	      2.33459      0.00698     -0.13185         1.810773      0.050875     -0.750288
O	      4.42867      2.25432     -0.00454         0.960501     -0.729747     -0.789145
O	      6.67099     -2.22379     -2.29587        -0.107981     -0.424735      0.130894
O	      8.86446      0.02354     -2.26915        -0.800223     -0.813947      0.176973
O	      4.46748      0.00695     -2.26425         0.250238     -0.146174      0.801454
O	      6.56142      2.25384     -2.13730        -0.895017     -0.845414      0.756289
