# total energy = -93.01465529 eV
 
CRYSTAL
PRIMVEC
2.063441 4.047546 2.063359 
2.091886 -4.075938 2.091774 
4.189951 -0.000024 -4.189787 
PRIMCOORD
16 1
Li	      4.21187      4.04529     -0.08415        -0.014056     -0.000049      0.013594
Li	      6.20978     -0.01589     -2.05453         0.013825     -0.000336     -0.012477
Li	      4.24869     -0.01600     -0.09066         0.023038     -0.001209     -0.024344
Li	      4.14005     -2.04001     -2.04504        -0.009984      0.000390      0.007066
Mn	      6.22104      4.04539     -2.09418        -0.024907      0.001079      0.025283
Mn	      2.10298      2.02170     -0.03967         0.013233     -0.000224     -0.013935
Ni	      4.14449      2.02151     -2.08035        -0.006873      0.000503      0.005179
Ni	      4.19692      2.00757      2.02177        -0.008946      0.000666      0.007866
O	      6.41198     -0.01895     -0.03119         0.060653      0.116155     -0.009280
O	      4.00385      1.95394     -0.00613        -0.066004      0.010419     -0.015689
O	      4.18676     -0.01387     -2.25674         0.009233     -0.115228     -0.059870
O	      4.14860     -0.10195      2.20502         0.003742     -0.097835      0.031980
O	      4.16147     -1.98659      0.15117         0.017005     -0.011017      0.067151
O	      2.09469      2.11130      1.95392        -0.016304      0.037536     -0.036847
O	      1.94978      0.06948      0.00632        -0.032080      0.097413     -0.002430
O	      2.20088     -2.14395      2.06042         0.038424     -0.038262      0.016753
