# total energy = -118.67670949 eV
 
CRYSTAL
PRIMVEC
2.155469 4.363599 2.156008 
4.295884 -4.335549 -0.041494 
4.336793 -0.000576 -4.336776 
PRIMCOORD
16 1
Li	      0.11985     -0.04493      0.00370         0.649394      0.034352     -0.344293
Li	      2.25050      2.22417      0.11501         0.564653     -0.118981     -0.311266
Li	      2.36890     -2.03439     -0.11393        -0.304273     -0.116551      0.265105
Li	      6.73103      0.05886     -2.40567         0.007831     -0.209866      0.064928
Ti	      2.46882     -0.00109     -2.21631        -1.490163      0.161549      0.426316
Ti	      4.62876      2.09347     -2.30646        -1.006885      0.776204      0.544008
Ti	      4.52563      0.01607      0.01414         0.224058      0.574773     -0.145313
Ti	      4.52987     -2.25319     -2.23191         0.111144      0.083961      0.224104
O	      4.49995     -2.24982     -0.04296         0.387542      1.236703     -0.416270
O	      6.71470      0.01916     -0.01599        -0.429240      0.758472     -0.607793
O	      2.35720      0.00704     -0.13313         2.016386      0.051644     -0.829470
O	      4.47155      2.27616     -0.00458         1.091615     -0.766400     -0.860167
O	      6.73560     -2.24533     -2.31811        -0.121766     -0.496244      0.141856
O	      8.95031      0.02377     -2.29113        -0.941339     -0.880564      0.144725
O	      4.51075      0.00703     -2.28618         0.269332     -0.131232      0.869700
O	      6.62497      2.27567     -2.15800        -1.028289     -0.957821      0.833828
