# total energy = -118.20309257 eV
 
CRYSTAL
PRIMVEC
2.165832 4.384577 2.166373 
4.316537 -4.356393 -0.041693 
4.357643 -0.000579 -4.357626 
PRIMCOORD
16 1
Li	      0.12100     -0.04537      0.00374         0.762948      0.040209     -0.379172
Li	      2.27219      2.24561      0.11612         0.622084     -0.124998     -0.345539
Li	      2.42309     -2.03292     -0.12557        -0.335768     -0.125754      0.290527
Li	      6.79591      0.05943     -2.42886         0.010093     -0.231517      0.065921
Ti	      2.52378     -0.00097     -2.22745        -1.638033      0.195451      0.508270
Ti	      4.69412      2.09271     -2.32889        -1.070638      0.840420      0.572532
Ti	      4.56925      0.01622      0.01427         0.271474      0.635863     -0.120524
Ti	      4.57353     -2.27490     -2.25342         0.085640      0.004572      0.217415
O	      4.54332     -2.27151     -0.04338         0.438662      1.338151     -0.401764
O	      6.77942      0.01934     -0.01614        -0.468379      0.857660     -0.665775
O	      2.37992      0.00711     -0.13441         2.207440      0.054227     -0.901212
O	      4.51465      2.29809     -0.00463         1.212971     -0.787006     -0.923202
O	      6.80052     -2.26697     -2.34045        -0.133311     -0.579719      0.153460
O	      9.03658      0.02400     -2.31321        -1.091559     -0.940927      0.087476
O	      4.55423      0.00709     -2.30822         0.283263     -0.110903      0.931205
O	      6.68883      2.29760     -2.17880        -1.156889     -1.065729      0.910383
