# total energy = -117.69331524 eV
 
CRYSTAL
PRIMVEC
2.176194 4.405556 2.176739 
4.337190 -4.377237 -0.041893 
4.378493 -0.000581 -4.378475 
PRIMCOORD
16 1
Li	      0.12216     -0.04580      0.00378         0.895257      0.045865     -0.412511
Li	      2.29399      2.26714      0.11724         0.678475     -0.127579     -0.377800
Li	      2.47769     -2.03135     -0.13731        -0.367059     -0.139322      0.310843
Li	      6.86110      0.06000     -2.45216         0.010433     -0.249785      0.066062
Ti	      2.57916     -0.00084     -2.23861        -1.777341      0.231025      0.603833
Ti	      4.75991      2.09184     -2.35143        -1.118893      0.893783      0.598392
Ti	      4.61308      0.01638      0.01441         0.322127      0.701021     -0.086160
Ti	      4.61740     -2.29673     -2.27503         0.049165     -0.102734      0.204605
O	      4.58690     -2.29330     -0.04380         0.488369      1.431194     -0.373601
O	      6.84445      0.01952     -0.01629        -0.505604      0.964663     -0.723898
O	      2.40275      0.00718     -0.13570         2.381802      0.056308     -0.968079
O	      4.55796      2.32014     -0.00467         1.334183     -0.784118     -0.979440
O	      6.86575     -2.28871     -2.36290        -0.142589     -0.668029      0.162435
O	      9.12327      0.02423     -2.33540        -1.262047     -1.000556      0.023433
O	      4.59792      0.00716     -2.33036         0.296981     -0.084136      0.979643
O	      6.75299      2.31964     -2.19970        -1.283257     -1.167601      0.972244
