# total energy = -114.57362349 eV
 
CRYSTAL
PRIMVEC
3.926399 -0.014032 3.976996 
-0.014332 3.925962 -3.976701 
-0.014533 3.926766 3.977480 
PRIMCOORD
16 1
Li	      0.00532      0.00340      0.00241        -0.182929     -1.022939     -0.260721
Li	      1.85571      1.86344      0.00034        -0.010433      0.138998     -0.212221
Li	      1.85426      3.72092      5.66748         0.198572      0.080198      0.794656
Li	      1.85103      3.72546      1.88721        -0.203986     -0.410960     -0.065189
Ti	     -0.01982      5.59477      1.88663        -2.311675      1.553270     -0.650146
Ti	     -0.01873      5.59387     -1.88535        -0.466010      3.256276     -6.493962
Ti	      1.84313      5.58855      0.00121        -0.456457      1.465474     -2.498257
Ti	      3.71480      3.71910      3.77638         1.530835     -0.972994      5.698603
O	      0.02321      1.83559     -0.00028        -0.700202     -2.522148     -0.615128
O	     -0.01262      3.72978     -1.88273         0.726018     -1.848221     -9.135341
O	      1.85915      1.85964      1.89672         1.386974     -1.215770      0.060794
O	      1.77290      3.80119      0.00123         1.817426     -2.082605     -0.872883
O	      3.71582      3.71690      5.65966         0.518800     -1.462324      4.322358
O	      3.67687      5.61538      3.77863        -0.138577      3.441090      6.611690
O	      1.92821      3.64678      3.77893        -3.597993      0.687428      0.723174
O	      1.84549      5.58822      1.88290         1.889637      0.915227      2.592576
