# total energy = -117.06629015 eV
 
CRYSTAL
PRIMVEC
3.967729 -0.014180 4.018859 
-0.014483 3.967288 -4.018561 
-0.014686 3.968101 4.019349 
PRIMCOORD
16 1
Li	      0.00543      0.00347      0.00246        -0.141414     -0.780589     -0.219312
Li	      1.89498      1.90287      0.00034        -0.009236      0.124308     -0.149043
Li	      1.89350      3.79967      5.78743         0.180024      0.070754      0.621211
Li	      1.89020      3.80430      1.92714        -0.155181     -0.311807     -0.051060
Ti	     -0.02024      5.71318      1.92656        -1.691346      1.099321     -0.600403
Ti	     -0.01913      5.71225     -1.92524        -0.413664      2.228528     -3.936017
Ti	      1.88214      5.70682      0.00124        -0.417780      0.869450     -1.861407
Ti	      3.79342      3.79781      3.85630         1.309199     -0.486709      3.497824
O	      0.02370      1.87443     -0.00028        -0.524429     -1.940543     -0.462277
O	     -0.01289      3.80871     -1.92258         0.316010     -1.252821     -6.104409
O	      1.89849      1.89899      1.93686         0.971368     -0.952801      0.021849
O	      1.81042      3.88163      0.00126         1.430826     -1.454091     -0.662755
O	      3.79446      3.79557      5.77944         0.429183     -1.032997      3.201818
O	      3.75469      5.73423      3.85860         0.021537      2.553939      4.281273
O	      1.96902      3.72396      3.85891        -2.602723      0.576318      0.596389
O	      1.88455      5.70649      1.92275         1.297625      0.689738      1.826319
