# total energy = -118.01632894 eV
 
CRYSTAL
PRIMVEC
3.988395 -0.014254 4.039791 
-0.014559 3.987951 -4.039491 
-0.014763 3.988768 4.040283 
PRIMCOORD
16 1
Li	      0.00548      0.00351      0.00249        -0.119821     -0.669949     -0.198610
Li	      1.91477      1.92275      0.00034        -0.010142      0.108971     -0.123636
Li	      1.91327      3.83936      5.84787         0.159466      0.066711      0.539044
Li	      1.90994      3.84404      1.94727        -0.134920     -0.270301     -0.041240
Ti	     -0.02045      5.77284      1.94668        -1.427798      0.866504     -0.545488
Ti	     -0.01933      5.77191     -1.94535        -0.354657      1.816947     -2.995678
Ti	      1.90179      5.76642      0.00126        -0.369937      0.643714     -1.577538
Ti	      3.83304      3.83747      3.89657         1.155900     -0.319683      2.676986
O	      0.02395      1.89401     -0.00029        -0.443696     -1.677189     -0.416217
O	     -0.01302      3.84849     -1.94266         0.190609     -1.016599     -4.877213
O	      1.91832      1.91883      1.95709         0.780518     -0.823633      0.017983
O	      1.82933      3.92217      0.00128         1.237880     -1.172696     -0.566180
O	      3.83409      3.83521      5.83980         0.382736     -0.798015      2.714557
O	      3.79390      5.79411      3.89889         0.066241      2.160094      3.380856
O	      1.98959      3.76285      3.89921        -2.159298      0.503957      0.529874
O	      1.90423      5.76608      1.94283         1.046919      0.581167      1.482500
