# total energy = -118.79388349 eV
 
CRYSTAL
PRIMVEC
4.009060 -0.014327 4.060722 
-0.014634 4.008614 -4.060421 
-0.014839 4.009435 4.061217 
PRIMCOORD
16 1
Li	      0.00554      0.00354      0.00251        -0.096932     -0.559877     -0.177751
Li	      1.93467      1.94272      0.00035        -0.008759      0.092691     -0.098688
Li	      1.93315      3.87925      5.90863         0.143270      0.059105      0.455132
Li	      1.92978      3.88397      1.96751        -0.112021     -0.221612     -0.031119
Ti	     -0.02066      5.83282      1.96691        -1.173300      0.672251     -0.480709
Ti	     -0.01953      5.83188     -1.96556        -0.291041      1.446341     -2.208311
Ti	      1.92155      5.82633      0.00127        -0.324341      0.457971     -1.312212
Ti	      3.87286      3.87735      3.93706         0.992783     -0.196335      1.993118
O	      0.02420      1.91369     -0.00029        -0.366844     -1.414402     -0.358256
O	     -0.01316      3.88848     -1.96284         0.102588     -0.804521     -3.803101
O	      1.93825      1.93876      1.97742         0.610134     -0.698829      0.010042
O	      1.84833      3.96292      0.00129         1.040860     -0.932955     -0.476448
O	      3.87393      3.87506      5.90048         0.333616     -0.601662      2.244333
O	      3.83332      5.85431      3.93940         0.080203      1.787124      2.602717
O	      2.01025      3.80195      3.93971        -1.759211      0.436110      0.459356
O	      1.92402      5.82599      1.96302         0.828997      0.478600      1.181897
