# total energy = -119.88947932 eV
 
CRYSTAL
PRIMVEC
4.050390 -0.014475 4.102585 
-0.014785 4.049940 -4.102281 
-0.014992 4.050769 4.103085 
PRIMCOORD
16 1
Li	      0.00566      0.00361      0.00256        -0.062226     -0.361845     -0.128929
Li	      1.97476      1.98299      0.00035        -0.001314      0.066522     -0.060211
Li	      1.97321      3.95964      6.03108         0.092727      0.045009      0.302976
Li	      1.96978      3.96447      2.00828        -0.069275     -0.148538     -0.017041
Ti	     -0.02109      5.95370      2.00767        -0.673942      0.390511     -0.328210
Ti	     -0.01994      5.95275     -2.00630        -0.195451      0.809881     -1.063644
Ti	      1.96138      5.94708      0.00129        -0.211296      0.194826     -0.808220
Ti	      3.95313      3.95770      4.01865         0.653904     -0.038090      0.972288
O	      0.02470      1.95335     -0.00030        -0.222902     -0.900309     -0.233393
O	     -0.01343      3.96906     -2.00352         0.010393     -0.420283     -2.085265
O	      1.97842      1.97895      2.01840         0.361526     -0.460132      0.014267
O	      1.88664      4.04505      0.00132         0.678594     -0.547700     -0.309271
O	      3.95421      3.95537      6.02276         0.225161     -0.343072      1.361241
O	      3.91276      5.97564      4.02105         0.055585      1.109394      1.384882
O	      2.05192      3.88074      4.02136        -1.061632      0.304426      0.314334
O	      1.96389      5.94673      2.00370         0.420149      0.299400      0.684197
