# total energy = -120.23730899 eV
 
CRYSTAL
PRIMVEC
4.071056 -0.014549 4.123517 
-0.014860 4.070603 -4.123211 
-0.015069 4.071437 4.124019 
PRIMCOORD
16 1
Li	      0.00571      0.00366      0.00259        -0.045192     -0.268777     -0.103776
Li	      1.99496      2.00327      0.00036         0.000615      0.048560     -0.042972
Li	      1.99340      4.00015      6.09278         0.064901      0.037971      0.229066
Li	      1.98993      4.00503      2.02883        -0.050507     -0.112775     -0.010641
Ti	     -0.02130      6.01461      2.02821        -0.470672      0.270938     -0.246511
Ti	     -0.02014      6.01364     -2.02682        -0.135991      0.550740     -0.662042
Ti	      1.98144      6.00793      0.00130        -0.158290      0.106203     -0.587378
Ti	      3.99357      3.99819      4.05976         0.482543     -0.000309      0.617901
O	      0.02495      1.97333     -0.00030        -0.156017     -0.649447     -0.163284
O	     -0.01357      4.00966     -2.02402        -0.005456     -0.266015     -1.407258
O	      1.99866      1.99919      2.03906         0.254165     -0.344448      0.016180
O	      1.90594      4.08643      0.00133         0.499357     -0.379112     -0.231064
O	      3.99467      3.99583      6.08438         0.171030     -0.242490      0.960193
O	      3.95279      6.03677      4.06218         0.035752      0.800236      0.920116
O	      2.07291      3.92044      4.06250        -0.754932      0.231818      0.239059
O	      1.98398      6.00757      2.02420         0.268695      0.216908      0.472411
