# total energy = -92.71754073 eV
 
CRYSTAL
PRIMVEC
-0.000801 2.065816 2.072017 
6.117089 -0.010060 -2.065213 
-2.083747 6.287717 -4.232158 
PRIMCOORD
16 1
Li	      2.06933      2.07728      0.00288        -0.005396      0.008278     -0.020609
Li	      4.06095      2.14245     -2.14850         0.000687     -0.006867     -0.000489
Li	     -0.10169      4.22418     -0.10575        -0.001653     -0.002353      0.020031
Li	      4.14664      4.03312     -4.02934         0.004210     -0.017365     -0.010252
Mn	     -0.00187      2.10026      2.03468        -0.019622      0.042778     -0.036482
Mn	      2.06109      4.14757     -2.08958         0.035711     -0.034677      0.050228
Ni	     -0.06522      6.22346     -2.09840        -0.058923     -0.002099      0.005511
Ni	      1.96386      6.28369     -4.23477        -0.014449     -0.034941      0.039809
O	      0.07581      4.19454     -2.13873         0.057567     -0.109334      0.103874
O	      0.00532      1.95854      0.10939         0.003552     -0.023944      0.032165
O	      4.01837      6.40059     -4.35992         0.005977      0.041204     -0.015277
O	      3.91638      4.17213     -2.10556        -0.048460     -0.006696     -0.022676
O	     -0.11248      6.25928     -4.20302        -0.130518      0.083146     -0.083515
O	      4.18733      2.00001      0.06197         0.056524      0.130238     -0.125824
O	      2.01009      6.18668     -2.05752         0.110894     -0.093258      0.080938
O	      2.00108      2.22296     -2.23638         0.003900      0.025890     -0.017430
