# total energy = -90.51535619 eV
 
CRYSTAL
PRIMVEC
-4.185586 -0.000096 -0.000001 
0.000001 0.000012 4.065254 
0.000166 8.282861 0.000017 
PRIMCOORD
16 1
Li	     -4.18498      4.24825      4.06363         0.000172     -0.010075      0.000398
Li	     -2.09179      8.17005      2.03097        -0.000502      0.018369      0.000091
Li	     -2.09229      4.22939      2.03100         0.000590     -0.045536     -0.000196
Li	     -4.18468      6.06283      2.03099        -0.001317     -0.044275      0.000837
Mn	     -4.18460      8.22418      4.06366        -0.000352     -0.020068      0.000114
Mn	     -2.09207      2.17537      4.06364         0.000054     -0.078046      0.000676
Ni	     -2.09184      6.09798      4.06368        -0.000333     -0.012245     -0.000739
Ni	     -4.18486      2.14366      2.03104        -0.000051      0.117248     -0.000194
O	     -2.09211      2.10802      2.03103         0.000770     -0.106770     -0.001964
O	     -4.18499      4.03500      2.03106         0.000040      0.057472      0.000083
O	     -2.09178      6.19325      2.03103        -0.001271      0.050303      0.000495
O	     -4.18484      1.93955      4.06364         0.001051     -0.007878      0.000152
O	     -2.09218      4.03695      4.06367         0.000750      0.040477      0.000664
O	     -4.18475      0.14701      2.03101        -0.000560      0.008154      0.000588
O	     -4.18460      6.35331      4.06368        -0.000033      0.028920     -0.000479
O	     -2.09196      0.11974      4.06366         0.000992      0.003950     -0.000526
