# total energy = -120.59733582 eV
 
CRYSTAL
PRIMVEC
4.112386 -0.014697 4.165380 
-0.015011 4.111929 -4.165071 
-0.015222 4.112771 4.165887 
PRIMCOORD
16 1
Li	      0.00583      0.00373      0.00264        -0.018726     -0.089237     -0.041988
Li	      2.03568      2.04415      0.00037         0.005082      0.015842     -0.011825
Li	      2.03408      4.08179      6.21712         0.018399      0.021157      0.080360
Li	      2.03054      4.08676      2.07023        -0.015839     -0.043948      0.000953
Ti	     -0.02174      6.13736      2.06960        -0.141175      0.070361     -0.076524
Ti	     -0.02055      6.13637     -2.06818        -0.029861      0.149460     -0.142656
Ti	      2.02188      6.13053      0.00133        -0.048607      0.003659     -0.194514
Ti	      4.07507      4.07979      4.14261         0.158871      0.019977      0.149854
O	      0.02546      2.01360     -0.00030        -0.044612     -0.191604     -0.041858
O	     -0.01385      4.09149     -2.06532        -0.007392     -0.062151     -0.360998
O	      2.03944      2.03999      2.08066         0.066495     -0.115261      0.019298
O	      1.94484      4.16983      0.00136         0.127841     -0.071584     -0.080947
O	      4.07618      4.07737      6.20855         0.058708     -0.066748      0.267609
O	      4.03346      6.15997      4.14508         0.002598      0.244559      0.239198
O	      2.11521      4.00045      4.14541        -0.195525      0.046963      0.077573
O	      2.02447      6.13017      2.06551         0.063743      0.068555      0.116465
