# total energy = -120.59333689 eV
 
CRYSTAL
PRIMVEC
4.153717 -0.014844 4.207243 
-0.015162 4.153255 -4.206931 
-0.015375 4.154105 4.207756 
PRIMCOORD
16 1
Li	      0.00595      0.00380      0.00269         0.001247      0.087191      0.025356
Li	      2.07680      2.08545      0.00037         0.005641     -0.022488      0.011809
Li	      2.09055      0.01014      2.13496        -0.026086      0.005980     -0.066476
Li	      2.07156      4.16932      2.11205         0.012539      0.019534      0.006549
Ti	     -0.00680      2.10723     -2.09635         0.114885     -0.057437      0.092334
Ti	     -0.00580      2.10708      2.09696         0.030592     -0.096395      0.072101
Ti	      2.07789      2.10112      4.20829         0.060316     -0.006695      0.150793
Ti	      0.00367      4.17705      0.01906        -0.116949     -0.052677     -0.064365
O	      0.02597      2.05428     -0.00031         0.025450      0.210185      0.051336
O	     -0.01412      4.17415     -2.10705         0.007318      0.053462      0.377602
O	      2.08064      2.08119      2.12270        -0.052830      0.098833      0.049709
O	      1.98412      4.25407      0.00138        -0.230814      0.177206      0.066794
O	      0.00481      4.17458      2.12673        -0.043979      0.041285     -0.327452
O	      4.11494      6.28441      4.22882        -0.006595     -0.247170     -0.189542
O	      2.15794      4.08126      4.22915         0.271846     -0.151207     -0.088833
O	      2.06536      6.25401      2.10723        -0.052579     -0.059609     -0.167716
