# total energy = -120.29453281 eV
 
CRYSTAL
PRIMVEC
4.195047 -0.014992 4.249106 
-0.015313 4.194581 -4.248791 
-0.015528 4.195440 4.249624 
PRIMCOORD
16 1
Li	      0.00606      0.00388      0.00275         0.018205      0.263645      0.102387
Li	      2.11834      2.12716      0.00038         0.001173     -0.058629      0.030725
Li	      2.13221      0.05208      2.21994        -0.059469     -0.005572     -0.216849
Li	      2.11299      4.25270      2.15429         0.038586      0.081087      0.012420
Ti	     -0.00710      2.19112     -2.09599         0.298701     -0.103598      0.237842
Ti	     -0.00607      2.19096      2.09663         0.057412     -0.243348      0.128219
Ti	      2.11929      2.18488      4.25018         0.152902      0.049390      0.444793
Ti	      0.04549      4.26044      0.06172        -0.334853     -0.154957     -0.128031
O	      0.02649      2.09537     -0.00032         0.101776      0.616786      0.132976
O	     -0.01441      4.25763     -2.14918         0.022697      0.083259      0.942732
O	      2.12226      2.12282      2.16515        -0.119069      0.299969      0.073443
O	      2.02381      4.33915      0.00141        -0.568765      0.346829      0.221657
O	      0.04665      4.25793      2.21154        -0.138663      0.059745     -0.914883
O	      0.00219      6.42509      0.06429        -0.037173     -0.720295     -0.423620
O	      2.20110      4.16289      4.31373         0.651914     -0.333455     -0.268079
O	      2.10667      6.37909      2.14938        -0.085374     -0.180856     -0.375731
