# total energy = -120.05193325 eV
 
CRYSTAL
PRIMVEC
4.215713 -0.015066 4.270038 
-0.015389 4.215244 -4.269721 
-0.015604 4.216107 4.270558 
PRIMCOORD
16 1
Li	      0.00613      0.00392      0.00278         0.019634      0.353419      0.146444
Li	      2.13926      2.14816      0.00038        -0.000633     -0.078294      0.037931
Li	      2.15319      0.07337      2.26290        -0.071958     -0.013921     -0.294220
Li	      2.13386      4.29471      2.17557         0.048008      0.111534      0.013829
Ti	     -0.00724      2.23353     -2.09566         0.365203     -0.099224      0.293990
Ti	     -0.00620      2.23336      2.09631         0.058880     -0.270837      0.120599
Ti	      2.14014      2.22722      4.27112         0.181349      0.096940      0.568849
Ti	      0.06670      4.30244      0.08336        -0.415550     -0.221539     -0.121601
O	      0.02675      2.11606     -0.00032         0.107306      0.792375      0.166815
O	     -0.01455      4.29968     -2.17041         0.026032      0.065112      1.140512
O	      2.14322      2.14379      2.18654        -0.126811      0.397529      0.096286
O	      2.04379      4.38200      0.00142        -0.746193      0.419743      0.305172
O	      0.06788      4.29990      2.25441        -0.185016      0.046925     -1.167703
O	      0.02298      6.48847      0.08595        -0.030050     -0.928745     -0.488606
O	      2.22284      4.20400      4.35634         0.830076     -0.438668     -0.358620
O	      2.12748      6.44209      2.17060        -0.060278     -0.232349     -0.459677
