# total energy = -119.41899182 eV
 
CRYSTAL
PRIMVEC
4.257043 -0.015214 4.311901 
-0.015539 4.256570 -4.311581 
-0.015757 4.257441 4.312426 
PRIMCOORD
16 1
Li	      0.00625      0.00400      0.00283         0.024209      0.541969      0.240910
Li	      2.18141      2.19049      0.00039        -0.012399     -0.113583      0.048198
Li	      2.19546      0.11655      2.34977        -0.085339     -0.029266     -0.456244
Li	      2.17590      4.37932      2.21843         0.062794      0.167243      0.014720
Ti	     -0.00754      2.31928     -2.09466         0.459695     -0.027992      0.376628
Ti	     -0.00648      2.31910      2.09534         0.036654     -0.284321      0.082119
Ti	      2.18216      2.31284      4.31301         0.230957      0.226733      0.783017
Ti	      0.10975      4.38706      0.12728        -0.536692     -0.342608     -0.084320
O	      0.02728      2.15775     -0.00033         0.103480      1.146582      0.231293
O	     -0.01484      4.38440     -2.21318         0.026856     -0.029869      1.450064
O	      2.18545      2.18603      2.22962        -0.116490      0.585280      0.142458
O	      2.08406      4.46835      0.00145        -1.092406      0.535568      0.488431
O	      0.11095      4.38448      2.34111        -0.263072     -0.045903     -1.651229
O	      0.06517      6.61617      0.12992        -0.015939     -1.347857     -0.533689
O	      2.26664      4.28684      4.44217         1.139035     -0.651810     -0.546179
O	      2.16940      6.56902      2.21337         0.038657     -0.330166     -0.586176
