# total energy = -119.03320369 eV
 
CRYSTAL
PRIMVEC
4.277708 -0.015288 4.332833 
-0.015615 4.277233 -4.332511 
-0.015834 4.278108 4.333360 
PRIMCOORD
16 1
Li	      0.00631      0.00403      0.00286         0.022226      0.638680      0.292398
Li	      2.20264      2.21181      0.00040        -0.020740     -0.132544      0.051534
Li	      2.21675      0.13846      2.39367        -0.089020     -0.032872     -0.546738
Li	      2.19708      4.42195      2.24002         0.068660      0.193189      0.013686
Ti	     -0.00769      2.36262     -2.09401         0.485885      0.035122      0.401799
Ti	     -0.00662      2.36243      2.09470         0.008609     -0.314663      0.084020
Ti	      2.20332      2.35611      4.33395         0.267555      0.296544      0.879638
Ti	      0.13159      4.42969      0.14955        -0.583515     -0.360951     -0.074050
O	      0.02755      2.17875     -0.00033         0.122854      1.338782      0.258875
O	     -0.01498      4.42707     -2.23472         0.023211     -0.098494      1.587585
O	      2.20672      2.20730      2.25132        -0.107313      0.672431      0.163130
O	      2.10435      4.51183      0.00147        -1.242727      0.571326      0.589982
O	      0.13280      4.42708      2.38492        -0.292338     -0.123921     -1.916339
O	      0.08656      6.68049      0.15222        -0.026113     -1.566576     -0.518619
O	      2.28870      4.32856      4.48541         1.263093     -0.742547     -0.640191
O	      2.19051      6.63296      2.23492         0.099673     -0.373504     -0.626710
