# total energy = -118.60438028 eV
 
CRYSTAL
PRIMVEC
4.298374 -0.015361 4.353764 
-0.015690 4.297896 -4.353441 
-0.015910 4.298776 4.354294 
PRIMCOORD
16 1
Li	      0.00637      0.00407      0.00289         0.015808      0.739141      0.346084
Li	      2.22397      2.23323      0.00040        -0.026289     -0.148026      0.054581
Li	      2.23814      0.16056      2.43789        -0.089438     -0.042240     -0.643015
Li	      2.21836      4.46477      2.26172         0.073206      0.216933      0.013703
Ti	     -0.00784      2.40627     -2.09326         0.502687      0.111195      0.415670
Ti	     -0.00676      2.40607      2.09395        -0.027756     -0.340835      0.093111
Ti	      2.22459      2.39970      4.35490         0.301343      0.369574      0.967470
Ti	      0.15363      4.47252      0.17203        -0.617006     -0.366898     -0.065152
O	      0.02781      2.19986     -0.00034         0.140345      1.532261      0.283138
O	     -0.01512      4.46995     -2.25636         0.014479     -0.178230      1.703721
O	      2.22809      2.22868      2.27313        -0.091500      0.757289      0.185961
O	      2.12473      4.55553      0.00149        -1.387184      0.592691      0.699117
O	      0.15485      4.46988      2.42905        -0.319883     -0.216039     -2.176571
O	      0.10817      6.74511      0.17473        -0.032996     -1.782803     -0.489494
O	      2.31087      4.37048      4.52885         1.371347     -0.830868     -0.732497
O	      2.21173      6.69720      2.25656         0.172839     -0.413145     -0.655827
