# total energy = -92.67224225 eV
 
CRYSTAL
PRIMVEC
0.000017 2.054594 2.054586 
8.329303 -0.000023 0.000096 
-0.000079 4.160884 -4.161097 
PRIMCOORD
16 1
Li	      2.08642      2.06746     -0.01352         0.002764      0.000575     -0.000176
Li	      3.89116      2.05373      2.05313        -0.038421      0.000481      0.000485
Li	      0.28217      2.08098     -2.08063         0.041570     -0.000363     -0.000581
Li	      2.08640      4.14795     -2.09415         0.002769     -0.000731      0.000642
Mn	      0.11125      2.05454      2.05388         0.102159     -0.000151     -0.000054
Mn	      4.06190      4.13510     -0.02647        -0.103550      0.000088      0.000104
Ni	      6.25121      4.14803     -2.09412        -0.003326     -0.001682      0.001797
Ni	      6.25128      2.06746     -0.01344        -0.003803      0.001693     -0.001634
O	      6.09815      4.13504     -0.02637        -0.058962      0.001436     -0.002187
O	      8.32521      4.25050     -2.19680         0.111121      0.018864     -0.019139
O	      6.40394      2.05469      2.05390         0.060768     -0.000793      0.001624
O	      8.32519      1.96480      0.08906         0.113644     -0.019783      0.019164
O	      2.24682      4.13503     -0.02654         0.060551      0.000511      0.000421
O	      4.17696      4.04539     -1.99128        -0.110843     -0.016905      0.016610
O	      1.92645      2.05440      2.05397        -0.064405      0.001478     -0.000579
O	      4.17706      2.17035     -0.11619        -0.112036      0.015282     -0.016496
