# total energy = -118.13652545 eV
 
CRYSTAL
PRIMVEC
4.319039 -0.015435 4.374696 
-0.015766 4.318559 -4.374371 
-0.015987 4.319443 4.375229 
PRIMCOORD
16 1
Li	      0.00643      0.00411      0.00291         0.003430      0.840830      0.401411
Li	      2.24541      2.25476      0.00040        -0.031927     -0.166345      0.054612
Li	      2.25964      0.18288      2.48243        -0.083753     -0.043798     -0.741707
Li	      2.23974      4.50781      2.28352         0.079380      0.244644      0.012418
Ti	     -0.00799      2.45023     -2.09240         0.507983      0.194201      0.411219
Ti	     -0.00690      2.45002      2.09311        -0.071068     -0.352053      0.104634
Ti	      2.24595      2.44359      4.37585         0.323830      0.444583      1.043368
Ti	      0.17587      4.51555      0.19472        -0.638525     -0.375263     -0.052297
O	      0.02808      2.22106     -0.00034         0.142460      1.712263      0.298757
O	     -0.01527      4.51303     -2.27811         0.002047     -0.270352      1.805246
O	      2.24956      2.25016      2.29503        -0.064136      0.840212      0.218885
O	      2.14521      4.59944      0.00150        -1.537647      0.609769      0.819092
O	      0.17711      4.51289      2.47350        -0.340415     -0.313154     -2.424369
O	      0.12997      6.81005      0.19745        -0.024113     -1.992464     -0.444200
O	      2.33314      4.41261      4.57250         1.473689     -0.923819     -0.827439
O	      2.23304      6.76175      2.27831         0.258767     -0.449255     -0.679628
