# total energy = -117.63473095 eV
 
CRYSTAL
PRIMVEC
4.339704 -0.015509 4.395627 
-0.015841 4.339222 -4.395301 
-0.016063 4.340110 4.396163 
PRIMCOORD
16 1
Li	      0.00649      0.00415      0.00294        -0.012732      0.944858      0.461137
Li	      2.26694      2.27638      0.00040        -0.041007     -0.185311      0.054359
Li	      2.28123      0.20540      2.52727        -0.078114     -0.052261     -0.854669
Li	      2.26123      4.55105      2.30542         0.080186      0.266483      0.011196
Ti	     -0.00815      2.49450     -2.09144         0.506971      0.287097      0.387727
Ti	     -0.00704      2.49429      2.09216        -0.112544     -0.324436      0.113370
Ti	      2.26742      2.48779      4.39679         0.329493      0.526559      1.109394
Ti	      0.19832      4.55879      0.21762        -0.645800     -0.396031     -0.027665
O	      0.02835      2.24236     -0.00034         0.131493      1.875924      0.306740
O	     -0.01542      4.55632     -2.29996        -0.012425     -0.366171      1.889083
O	      2.27114      2.27175      2.31705        -0.017546      0.924375      0.251759
O	      2.16578      4.64356      0.00151        -1.684023      0.622200      0.952012
O	      0.19957      4.55610      2.51826        -0.357689     -0.414057     -2.646543
O	      0.15199      6.87530      0.22037        -0.005907     -2.205080     -0.387943
O	      2.35552      4.45494      4.61636         1.567844     -1.018139     -0.922495
O	      2.25447      6.82661      2.30017         0.351799     -0.486010     -0.697461
