# total energy = -229.45406448 eV
 
CRYSTAL
PRIMVEC
0.004491 8.274044 8.312187 
4.176423 6.207035 10.390912 
6.270487 10.351613 8.306545 
PRIMCOORD
32 1
Li	      4.16788      6.24150     10.38052        -0.023074      0.003546     -0.012000
Li	      8.35848     18.69152     18.80213        -0.000148     -0.025033      0.003068
Li	      4.09540     10.42496     10.49624        -0.014393      0.014356      0.011409
Li	      6.37109     10.34633     12.53514         0.012678     -0.005601     -0.005750
Li	      8.36055     20.63133     20.71469         0.002341     -0.007051      0.020461
Li	      4.14701     12.41888     12.42447         0.017952     -0.005588      0.012038
Li	      6.28549     12.39776     14.51946         0.014986     -0.005111     -0.012047
Li	      4.23343     14.39230     14.54132         0.000595     -0.006253      0.013526
Li	      4.20588     12.45643     16.58306        -0.003526      0.001323     -0.008510
Li	      6.21956     14.37822     16.50429         0.013457     -0.002409      0.004384
Ti	      6.25025     16.64573     18.72660         0.025964      0.077338      0.099330
Ti	      6.18033     12.35062     10.41046        -0.297011     -0.009839      0.119228
Ti	      4.16847     10.33567     14.51362        -0.049214      0.006109     -0.053728
Ti	      8.34468     14.49021     14.52799        -0.018496     -0.000879     -0.094720
Ti	      2.05105      6.29795      8.29745         0.047857      0.068550     -0.075495
Ti	      4.26585      8.26496      8.34427        -0.031420     -0.119742     -0.007598
O	      2.01113     10.34093     10.28230        -0.042203     -0.026850     -0.135470
O	      8.49024     18.58932     20.79515         0.309058     -0.011299     -0.018898
O	      4.17756     10.22078     12.57914         0.005791     -0.091571      0.157551
O	      6.29012     12.47983     12.36215        -0.022276      0.083435     -0.136979
O	      2.00154      4.18089      4.27504        -0.086194     -0.021947      0.138759
O	      8.47775     20.78847     22.92874         0.132596      0.125364     -0.012586
O	      4.07626     12.30808     14.52501        -0.096519     -0.111590      0.003474
O	      6.38020     14.40864     14.46042         0.132258      0.019481     -0.070718
O	      2.08236      6.11261      6.32786         0.013797     -0.091542      0.122793
O	      8.36148     14.61611     16.62361         0.000710      0.041953     -0.028330
O	      4.10512     14.60857     16.59814        -0.030512      0.118638      0.015233
O	      6.29091     16.59789     16.61450        -0.008768      0.000241      0.049983
O	      2.16030      8.29509      8.26532        -0.005120     -0.033986      0.006776
O	      8.30725     16.48837     18.64382        -0.042457      0.015225     -0.095110
O	      4.20862      8.27996     10.40736         0.051607      0.014037     -0.008800
O	      6.28258     10.32543     10.37361        -0.010315     -0.013306     -0.001274
