# total energy = -229.43463965 eV
 
CRYSTAL
PRIMVEC
0.003551 4.081332 4.155837 
16.827239 2.089895 18.667516 
6.312795 2.051978 4.150097 
PRIMCOORD
32 1
Li	      8.42584      6.11666     10.36851        -0.012295     -0.012102     -0.021863
Li	     10.49045      6.08196     12.46678        -0.021848      0.000456     -0.000201
Li	     12.64797      6.13101     14.54042         0.013786      0.014002     -0.005200
Li	     14.75470      6.14153     16.61167         0.003862      0.005827      0.002565
Li	     16.80743      6.07211     18.62265         0.000254     -0.026644     -0.010288
Li	     14.72751      4.22905     18.65525         0.008461      0.010198     -0.002619
Li	     16.92430      4.12515     20.68950         0.037886     -0.016742     -0.010255
Li	      2.09283      2.05978      4.14623        -0.001085     -0.003231      0.005664
Li	     10.52134      2.13224     12.47909         0.006892     -0.000590      0.008502
Li	     18.91275      4.12312     18.70486        -0.014661     -0.005453     -0.000480
Ti	     16.80922      2.17060     18.67091         0.045269      0.364284      0.044013
Ti	     18.85288      6.24072     20.83166        -0.034726      0.068697      0.115806
Ti	      4.23983      2.08119      6.17947        -0.090895     -0.019969     -0.015750
Ti	      6.27319      2.13548      8.27733        -0.043175      0.139475     -0.014227
Ti	      8.44384      2.06951     10.31761         0.097860      0.011373     -0.163980
Ti	     21.04716      4.05992     20.79691        -0.046343     -0.116555      0.012475
O	     19.06119      4.24364     20.74218         0.063789      0.070172      0.021924
O	      4.19282      2.03887      4.15103         0.009712     -0.011552     -0.003084
O	      6.30254      2.03886      6.25809        -0.029985      0.005643      0.029061
O	      8.29515      2.01786      8.40292        -0.070191      0.017040      0.185028
O	     10.40803      2.17899     10.34425        -0.108962      0.096612      0.010392
O	     12.60997      6.11782     16.58278         0.015025     -0.095562      0.002561
O	     14.78353      6.25098     18.80167        -0.014852      0.094506      0.071517
O	     16.84417      6.13223     20.76127         0.028273      0.011066      0.021321
O	     18.86004      6.17324     22.75397        -0.046722     -0.001051     -0.162918
O	      4.18429      4.10513      6.22776         0.001837      0.067454      0.000045
O	      6.30705      4.03276      8.29906         0.006073     -0.131044      0.005815
O	      8.54416      4.02172     10.40257         0.060078     -0.128778     -0.006063
O	     10.62399      4.10622     12.37520         0.119729     -0.007052     -0.045958
O	     12.69947      4.13315     14.47937         0.034698      0.011833     -0.024698
O	     14.62655      4.05088     16.55383        -0.022840     -0.025657     -0.048703
O	     16.79477      3.99729     18.67132         0.005092     -0.386655     -0.000401
