# total energy = -229.30516870 eV
 
CRYSTAL
PRIMVEC
-0.011824 4.137771 4.186788 
16.508106 2.031186 18.831293 
8.256658 2.053243 6.272345 
PRIMCOORD
32 1
Li	     16.50866      6.14767     22.97587         0.000061      0.006289     -0.012821
Li	      4.11894      4.12964      8.36428        -0.008433     -0.002272     -0.007900
Li	     16.47787      6.11183     18.86503        -0.006360     -0.001293      0.018826
Li	     18.56756      6.11894     20.96743        -0.003180      0.007023      0.012845
Li	     20.62186      6.13084     23.04557         0.004999     -0.025307     -0.003704
Li	     22.70421      6.11420     25.13784         0.016227     -0.003848      0.005404
Li	     16.49352      4.24721     20.88350        -0.003545      0.027022     -0.015027
Li	      2.01678      2.16141      4.17114        -0.017065      0.015819     -0.018028
Li	      4.14863      2.11119      6.18107         0.002389      0.014461     -0.033350
Li	     22.70187      4.05811     23.06940         0.004765      0.006083      0.011686
Ti	     10.28756      6.07806     12.54375        -0.017885     -0.103062      0.006429
Ti	      6.22054      4.15822     10.42276         0.142945      0.041712     -0.027763
Ti	      6.17858      2.09572      8.34420        -0.023105      0.084404     -0.031447
Ti	     16.53531      3.97729     16.77081         0.049048     -0.377969      0.037752
Ti	     10.33362      2.07770     12.49833        -0.103153     -0.049967     -0.048604
Ti	     20.62726      4.08042     21.07688         0.014330      0.007515      0.438028
O	     18.63439      4.05886     20.83855         0.038221     -0.015456      0.022098
O	     20.64351      4.10141     22.89710        -0.002214     -0.012396     -0.391476
O	      6.19720      1.99793      6.35550        -0.029944     -0.102614      0.059511
O	      8.24367      2.04917      8.41639        -0.011373     -0.000946     -0.047890
O	     10.30312      2.04627     10.45701         0.027530     -0.016060      0.033570
O	     12.38181      2.05063     12.60331         0.010352      0.000328     -0.002587
O	     14.35640      6.20973     18.74258        -0.056203      0.059414     -0.039608
O	     16.47947      6.27491     20.92575         0.014687      0.352202      0.003178
O	     18.54634      6.27110     23.12349         0.020855      0.028613     -0.003189
O	     20.51576      6.24145     25.11848        -0.061711      0.094599     -0.002071
O	      6.16821      4.05382      8.43083         0.019230     -0.121311      0.067537
O	      8.11670      4.04803     10.44229        -0.169446     -0.010375      0.011670
O	     10.32842      4.14126     12.52385        -0.003937      0.088080     -0.005529
O	     12.49512      4.01495     14.65641         0.100488     -0.090318     -0.001726
O	     14.49608      4.17027     16.67682        -0.002107      0.098030     -0.020502
O	     16.60692      4.13597     18.75752         0.053535      0.001600     -0.015314
