# total energy = -229.54440139 eV
 
CRYSTAL
PRIMVEC
-0.193034 16.412920 16.293640 
4.264848 2.003491 6.109427 
4.265641 2.003469 2.036001 
PRIMCOORD
32 1
Li	      4.04212     18.39729     18.32938        -0.015364     -0.005579     -0.000403
Li	      1.94803     16.46842     18.33008        -0.006111     -0.000193     -0.001438
Li	      6.41260      3.93714      6.10884         0.013841     -0.032020      0.000551
Li	      4.14498      6.25593     10.18183        -0.022913      0.020775      0.002625
Li	      4.21345      8.08593      8.14537         0.030867     -0.011411      0.000032
Li	      2.04676      6.20189      8.14661        -0.028664      0.017048     -0.000423
Li	      6.38316     10.03656     12.21922         0.026983     -0.021491      0.000595
Li	      4.11828     12.35515     16.29287        -0.014096      0.033124      0.000526
Li	      4.12533     14.23347     14.25636         0.005122      0.002124     -0.000754
Li	      2.02740     12.30450     14.25687         0.015813      0.008793     -0.000965
Ti	      0.03082      2.00117      2.03472         0.114588      0.031136      0.009098
Ti	      2.08101      4.18097      6.11046        -0.061549      0.354847     -0.004586
Ti	      4.18417     10.10912     10.18183         0.067604     -0.371581      0.002317
Ti	      6.23472     12.28840     14.25745        -0.100246     -0.037116     -0.009090
Ti	      4.10531     16.39197     20.36731        -0.045865     -0.040252     -0.001706
Ti	      6.23407     16.31415     18.32828         0.047010      0.037124      0.002193
O	      6.20767      4.07871      8.14635        -0.141611      0.021689      0.001055
O	      4.07180     18.38715     20.36584         0.001636      0.010598     -0.000399
O	      2.20223      4.06930      4.07371         0.033375     -0.014577     -0.006732
O	      4.15220      3.95385      6.10814        -0.015856     -0.003399      0.003081
O	      2.10258      6.01676      6.10985         0.006069     -0.355046      0.001481
O	      4.38063      5.98293      8.14478         0.097886     -0.120435     -0.003799
O	      6.15010     10.30943     14.25640        -0.101468      0.124244      0.004503
O	      4.16199      8.27268     10.18194        -0.003298      0.355565     -0.000789
O	      6.37832     12.33901     16.29336         0.011504      0.006130     -0.001245
O	      4.06377     10.21949     12.21828        -0.037492      0.021611      0.008242
O	      6.26665     14.31880     18.32969        -0.003077     -0.016993     -0.001902
O	      4.32380     12.21349     14.25549         0.132120     -0.017170     -0.003350
O	      1.92244     14.30224     14.25593        -0.021692      0.000343     -0.002801
O	      3.96864     14.42664     16.29346        -0.083718      0.111981      0.003398
O	      2.10623     16.27532     16.29269         0.082383     -0.109586     -0.002734
O	      4.15238     16.40016     18.33019         0.016219     -0.000284      0.003419
