# total energy = -229.35787433 eV
 
CRYSTAL
PRIMVEC
0.000008 2.079033 2.079265 
32.757170 -0.383560 33.651929 
8.182910 2.024819 6.292049 
PRIMCOORD
32 1
Li	      8.17898      1.96570      6.35269         0.005171     -0.027477      0.028052
Li	     12.34860      3.98801     12.64631         0.015707     -0.014249      0.016782
Li	     14.32545      4.02977     14.68235        -0.000451      0.007017     -0.005933
Li	      8.11616     -0.02731      8.34643        -0.006618      0.016866     -0.016999
Li	     12.28784      1.99588     14.64101        -0.007679      0.031903     -0.031976
Li	     24.58202      3.88220     25.23223        -0.012796     -0.001153     -0.000654
Li	     18.43355      1.96811     20.90830        -0.006454      0.020827     -0.024637
Li	     22.52048     -0.26049     23.13789         0.001553     -0.001732     -0.002308
Li	     34.79422      1.61175     33.73707        -0.008533     -0.022684      0.022401
Li	     28.63952     -0.29822     29.40989         0.018103     -0.007382      0.007524
Ti	     10.14403      1.99694      8.40036        -0.369401      0.080364     -0.077667
Ti	     10.32146      1.96510     12.59193         0.352921     -0.080843      0.080022
Ti	     14.46339      1.94558     16.77156         0.277935      0.066889     -0.069550
Ti	     28.55444      1.76746     27.34573        -0.124210     -0.045644      0.045494
Ti	     24.67027      1.81082     27.30024         0.134934      0.052174     -0.050733
Ti	     38.75744      1.63454     37.87231        -0.252433     -0.086910      0.087694
O	     34.84163      1.58938     35.83903        -0.007122     -0.041455      0.037484
O	     36.89494      1.66923     37.83793         0.242048      0.004142     -0.003944
O	      6.16396      2.11735      6.20021        -0.013025      0.075546     -0.075965
O	      8.31467      1.99240      8.40490         0.391703      0.000578      0.006367
O	     10.23238      1.98097     10.49623        -0.000645      0.001872     -0.001317
O	     12.15025      1.97018     12.58671        -0.373564     -0.004881      0.003054
O	     14.30385      1.84715     14.79069        -0.003734     -0.080055      0.076707
O	     16.32736      1.90889     16.80759        -0.239610      0.002677      0.000274
O	     18.38103      1.98942     18.80535         0.014996      0.039174     -0.038092
O	     20.50934      1.77114     21.10479         0.009839     -0.054512      0.050618
O	     22.45390      1.91491     23.03960        -0.029379      0.022292     -0.019078
O	     24.56270      1.70955     25.32299         0.000596     -0.053180      0.055481
O	     26.61375      1.79025     27.32203        -0.008148     -0.002554      0.001743
O	     28.66235      1.86703     29.32500         0.001632      0.067119     -0.064774
O	     30.77123      1.66329     31.60636         0.016664     -0.011017      0.008007
O	     32.71767      1.80943     33.53902        -0.019999      0.046290     -0.044074
