# total energy = -102.57122977 eV
 
CRYSTAL
PRIMVEC
0.012837 14.512774 14.555556 
2.082607 2.073164 4.160666 
2.086225 8.294875 6.238059 
PRIMCOORD
14 1
Li	      0.06276     14.50560     14.50598        -0.007955     -0.019190     -0.006030
Li	      4.09184     16.70326     16.74593         0.027549      0.008483     -0.008022
Li	      4.15529     18.60660     18.67122        -0.005730      0.001407      0.006790
Li	      2.12268     18.60061     16.65069        -0.009643     -0.002812     -0.000135
Ti	      2.05615     10.33024      8.32118        -0.018513     -0.065605      0.024383
Ti	      4.14159     14.50244     14.56143        -0.042682     -0.060853      0.028858
Ti	      2.16652     14.54503     16.58652         0.065088      0.099932     -0.124080
O	      2.01182     16.49601     16.65703        -0.006548     -0.101758     -0.001514
O	      2.07185     18.72729     18.75090        -0.000428      0.058750      0.057747
O	      2.08317      6.12838      6.23892        -0.011211      0.001178     -0.013517
O	      2.14255      8.29315      8.32010        -0.023952     -0.010224     -0.003305
O	      2.07837     10.46158     10.33063         0.019783      0.107076     -0.072299
O	      2.09683     12.42754     12.46408        -0.028819      0.003044      0.010049
O	      2.13551     14.53898     14.60653         0.043061     -0.019426      0.101076
