# total energy = -92.84385798 eV
 
CRYSTAL
PRIMVEC
2.074306 4.176607 2.073907 
2.074135 -4.176570 2.073972 
4.103962 0.000088 -4.103477 
PRIMCOORD
16 1
Li	      4.13698     -2.08691      2.08471         0.001595      0.002380      0.000773
Li	      2.07475      0.00252      2.07382         0.000979      0.000850      0.002458
Li	      4.12632      0.00050      0.02128         0.002921      0.000246      0.002232
Li	      4.11486     -2.08633     -2.04096         0.001898     -0.003094      0.001375
Mn	      2.07484     -4.17552      2.07423        -0.020065     -0.000061     -0.006378
Mn	      4.12639     -4.17537      0.02278        -0.005861      0.000764     -0.020462
Ni	      6.18947     -2.08732      0.03330        -0.000581      0.006465      0.000251
Ni	      2.06332     -2.08703      0.01101        -0.000263     -0.005014      0.001198
O	      6.28740     -0.02713      0.13119         0.032913      0.109162      0.031670
O	      4.12654      2.25419      0.02207        -0.000942      0.067701      0.002482
O	      4.01698      0.02929     -2.13831        -0.022067     -0.109070     -0.024624
O	      4.23561      0.02934      2.18288         0.028502     -0.107719      0.030005
O	      4.12636     -2.25159      0.02215        -0.000993     -0.071485      0.002135
O	      2.07452      2.25366      2.07391         0.001337      0.071579     -0.000116
O	      1.96510     -0.02713     -0.08688        -0.021600      0.111319     -0.021613
O	      6.17819     -2.25162     -2.02942         0.002226     -0.074022     -0.001386
