# total energy = -114.78609340 eV
 
CRYSTAL
PRIMVEC
0.000043 4.091499 4.090469 
8.580161 -0.012069 8.193336 
4.290327 2.046067 2.045057 
PRIMCOORD
16 1
Li	      8.58383      4.07885     12.28159        -0.002273     -0.000337      0.002967
Li	      4.29450      4.08428      8.18540        -0.000140     -0.001328      0.002727
Li	     10.72700      6.12399     12.28416         0.000131     -0.013063      0.006336
Li	      0.00540      2.04435      2.04392        -0.005168     -0.001796     -0.001886
Li	      2.14541      2.04384      4.08747        -0.000410      0.015165     -0.006078
Ti	      2.14971      4.15516      6.06938        -0.009800      0.036919     -0.041163
Ti	      4.29124      2.03771      6.14012        -0.000962     -0.016481     -0.003579
Ti	     10.72832      4.01244     10.30267         0.007746     -0.030710      0.029902
O	     10.77174      2.03249     10.23696        -0.049933     -0.006315      0.002315
O	      4.47001      2.03111      4.17017         0.101729     -0.006979      0.081691
O	      6.31468      2.03865      6.14081        -0.032834     -0.000303     -0.008379
O	      8.40806      2.11047      8.17663        -0.113419      0.100903      0.001402
O	     10.68438      4.07827     12.28176         0.054020     -0.005728      0.014867
O	      4.11740      4.01143      6.15000        -0.100453     -0.081736      0.005920
O	      6.56009      4.08333      8.18590         0.044271      0.002990      0.002435
O	      8.75937      4.09211     10.15746         0.107496      0.008800     -0.089478
