# total energy = -114.85471964 eV
 
CRYSTAL
PRIMVEC
-0.000117 2.078328 2.079833 
8.103154 -0.082702 8.401578 
10.146925 4.153649 6.241942 
PRIMCOORD
16 1
Li	     10.13012      4.09696      6.29537        -0.014130     -0.017984      0.024780
Li	     12.17160      4.13447      8.34284        -0.002141     -0.000722     -0.001349
Li	      4.06583      2.09457      6.22628         0.012327      0.018902     -0.025179
Li	      6.10954      4.08818      6.30590         0.006690     -0.022047      0.023860
Li	      8.08685      2.10421      6.21548        -0.005717      0.021311     -0.023427
Ti	     10.00891      2.04607      8.35188        -0.151277      0.020038     -0.028093
Ti	     12.29014      4.06318     12.57217         0.143287     -0.018691      0.023699
Ti	      6.07596     -0.06141      6.30003         0.006035     -0.005879      0.007698
O	     10.17861      2.07672     10.39976        -0.003068      0.033415     -0.038413
O	     12.12012      4.03224     10.52434         0.005073     -0.031671      0.036014
O	      4.05430      2.16113      4.07612         0.029372      0.075172     -0.080047
O	     14.19030      4.09546     12.53930        -0.152881      0.003733     -0.003599
O	      6.08205      1.93021      6.38836        -0.003327     -0.061047      0.063460
O	      8.11413      4.26150      6.13292        -0.001575      0.065820     -0.067883
O	      8.10855      2.01362      8.38380         0.157547     -0.002972      0.003780
O	     10.14125      4.03078      8.44589        -0.026215     -0.077378      0.084700
