# total energy = -132.77865042 eV
 
CRYSTAL
PRIMVEC
-0.000218 6.229297 6.197138 
6.174593 2.047968 8.290837 
4.116517 6.229439 6.196867 
PRIMCOORD
18 1
Li	      6.17238      2.09132      8.33161        -0.000329     -0.005009     -0.000669
Li	      4.11416      8.30502      8.26469         0.000214      0.001079     -0.000165
Li	      2.05607      2.08213      4.11651        -0.001412      0.004817      0.014212
Li	     10.28903     12.38889     18.57787        -0.001595      0.003547      0.001895
Li	      8.23064     10.34645     14.50237         0.000983     -0.003741     -0.014412
Ti	      2.05613      6.27873      8.31047        -0.003939      0.010646     -0.127298
Ti	      8.23036     12.37829     16.50573         0.002818     -0.003301      0.127743
Ti	      4.11371      2.10839      6.22743         0.003313     -0.103857     -0.069715
Ti	      6.17261     10.32239     12.39016        -0.002097      0.100768      0.067544
O	      2.05580      8.30527      8.26283         0.001198     -0.002301      0.000312
O	      4.11407      8.14162     10.47769        -0.000126     -0.056279      0.109777
O	      6.17202      8.29634     12.44010         0.000890      0.081430     -0.001941
O	      2.05608      4.17697      4.16381        -0.000529      0.003347     -0.025147
O	      4.11426      4.13428      6.17790        -0.000092     -0.083541      0.004351
O	      6.17222     10.51688     14.33732         0.001347      0.054261     -0.105416
O	      8.23053      8.25316     14.45464        -0.000613     -0.003446      0.021175
O	      4.11403      6.27501      8.26918         0.003981     -0.023199      0.107019
O	      6.17263      6.15349     10.34996        -0.004011      0.024779     -0.109266
