# total energy = -132.71888253 eV
 
CRYSTAL
PRIMVEC
0.016387 6.220281 6.182211 
6.320440 2.069982 8.262988 
4.208454 4.145269 4.134101 
PRIMCOORD
18 1
Li	      2.17267      6.31230      8.27401         0.002751     -0.006476     -0.013649
Li	      6.40496      4.27284     10.37212         0.009359     -0.004582      0.008336
Li	      2.07216      2.07828      4.03985         0.005535      0.017857     -0.017795
Li	      8.33435      6.11875     10.38934        -0.022943     -0.005416      0.003957
Li	      4.14017      8.18160      8.22658        -0.011024      0.008973     -0.001103
Ti	      0.05991      6.19063      6.17666        -0.025082     -0.031598     -0.013396
Ti	      8.43350     10.40611     14.53943         0.014284      0.030260      0.284322
Ti	      6.31947      8.25396     10.38366         0.052029     -0.100138      0.028669
Ti	      4.23647      4.17346      8.17005        -0.031432      0.091641     -0.080231
O	      8.41206     10.36603     16.39810        -0.000027      0.003561     -0.306700
O	      4.22933      8.28261     10.29694         0.031452     -0.021727      0.017589
O	      6.36205      8.28906     12.40427         0.014206      0.002798     -0.023734
O	      8.47195      6.28602     12.45657         0.027051      0.076232      0.035217
O	      4.20797      4.11390      6.16356        -0.002629     -0.010710      0.036045
O	      6.30736      4.08399      8.24181         0.012594     -0.044666      0.004259
O	      8.48898      8.29565     14.41978        -0.001071     -0.006632     -0.008163
O	      4.22640      6.10690      8.33011        -0.000427     -0.141681      0.040992
O	      6.25888      6.30138     10.33572        -0.074625      0.142303      0.005385
