# total energy = -132.75113808 eV
 
CRYSTAL
PRIMVEC
0.000019 2.095518 2.095624 
6.044308 -0.007867 6.294772 
8.086179 6.318462 2.063780 
PRIMCOORD
18 1
Li	      0.10057      2.10138      2.08693        -0.007467     -0.001850      0.005000
Li	     10.09240      6.29967      8.36751         0.002239      0.000133      0.001450
Li	      2.04395      2.14919      4.13919        -0.001748      0.018674     -0.024142
Li	      4.01038      2.04632      2.14617         0.003443     -0.019775      0.014681
Li	      5.95433      2.09152      4.19156         0.002485      0.005109     -0.000992
Ti	      8.05497      2.10392      6.27656        -0.013876     -0.067387      0.050794
Ti	      5.96927      4.23525      2.04908        -0.128747     -0.030473      0.029967
Ti	     12.13009      8.40019      8.36270         0.020574      0.070836     -0.055300
Ti	      8.17204      6.27735      6.29537         0.109179      0.023236     -0.020779
O	      2.03644      2.20328      1.98629         0.001963      0.082516     -0.068103
O	     10.07694      4.21826      8.35332         0.076330      0.016362     -0.009509
O	     12.12916      6.30006      8.36717        -0.016865     -0.013442      0.011025
O	      4.01835      1.99047      4.29408        -0.008225     -0.081087      0.071942
O	      6.10214      4.26868      4.11202         0.010879      0.040815     -0.042650
O	      8.03779      6.24395      4.23314         0.000543     -0.038244      0.035968
O	      6.04928      2.09286      6.28717         0.003889     -0.003333      0.002764
O	      8.05606      4.20428      6.27215         0.015405      0.017430     -0.014295
O	     10.10803      6.28639      6.28571        -0.070001     -0.019521      0.012179
