# total energy = -150.68407931 eV
 
CRYSTAL
PRIMVEC
-0.034848 4.208794 4.268450 
10.344591 2.187069 12.634868 
8.269129 4.221247 8.454197 
PRIMCOORD
20 1
Li	      8.22517      8.35712     12.67087        -0.005901     -0.004986     -0.012628
Li	     10.31372      8.23625     14.74828        -0.017669      0.017414     -0.006606
Li	      4.11975      2.34808      6.40806         0.021688     -0.017936      0.000473
Li	      6.20814      2.22672      8.48533         0.002965      0.006199      0.007599
Li	      8.27202      2.17120     10.53489        -0.000571     -0.000731      0.003725
Ti	     12.35097      8.41946     16.96507         0.019210     -0.041494     -0.019273
Ti	     14.38835      8.44834     19.03232        -0.054843     -0.053655     -0.053333
Ti	      8.25740      4.27815     12.66817        -0.004841     -0.012857      0.006319
Ti	     10.39196      4.32337     14.75762         0.029425      0.058067      0.037883
Ti	      2.07842      2.16345      4.19191         0.010105      0.043351      0.032323
O	     12.40707      4.28164     14.76145         0.009602      0.001743     -0.000307
O	     14.49331      8.53724     21.15423         0.027969      0.027153      0.006043
O	      6.23781      6.28261     10.53007         0.028769     -0.014133     -0.026804
O	      8.26908      6.34546     12.64301        -0.004340     -0.003720     -0.022454
O	     10.32370      6.28802     14.67198         0.005739     -0.084369     -0.037584
O	     12.38903      6.38637     16.89538        -0.003642      0.004536      0.002361
O	      4.11046      4.29807      6.48428        -0.008443      0.084800      0.038611
O	      6.16355      4.24171      8.51503        -0.007819      0.008135      0.025211
O	      8.19543      4.30158     10.62616        -0.028528      0.019211      0.024896
O	     10.28532      4.23323     12.63398        -0.018876     -0.036725     -0.006455
