# total energy = -168.78872841 eV
 
CRYSTAL
PRIMVEC
0.061956 23.091186 23.039161 
2.100219 2.107779 4.185930 
2.101625 8.384028 6.301780 
PRIMCOORD
22 1
Li	      2.06940      6.43083      8.42818        -0.007461      0.025394      0.008900
Li	      2.15588     14.55583     12.53301         0.016971     -0.021998     -0.012144
Li	      4.22089     23.14188     23.10425        -0.041871      0.002050      0.024106
Li	      2.14604     18.90429     20.94352        -0.003833     -0.004625      0.000426
Li	      0.07363     20.94150     20.90002         0.041516     -0.000629     -0.026199
Ti	      2.07250      2.12552      4.16713        -0.007039     -0.025966     -0.084615
Ti	      0.05976      2.12308      2.10143         0.097919      0.045971      0.021156
Ti	      4.16330     18.86430     18.85542        -0.076127     -0.054307     -0.020034
Ti	      2.15938     18.86102     16.80208         0.000135      0.040444      0.062337
Ti	      2.11603     16.88618     18.78198        -0.077901     -0.035583      0.037303
Ti	      2.18047     27.19971     25.21451         0.059753      0.019705     -0.019677
O	      2.17829     25.08667     25.05860        -0.018940      0.066918      0.034455
O	      2.15757     27.28597     27.26689        -0.007811     -0.075938      0.006001
O	      2.14115      6.29858      6.30529         0.019713     -0.032416     -0.021764
O	      2.04320      8.44143      8.38062        -0.033385      0.067136     -0.052085
O	      2.11676     10.49446     10.47831        -0.007379      0.001244      0.014572
O	      2.18809     12.54655     12.58143         0.024261     -0.069195      0.052035
O	      2.08967     14.68940     14.65673        -0.023112      0.041947      0.022903
O	      2.13217     16.79334     16.73277         0.013424      0.084388     -0.007135
O	      2.11192     18.99961     18.94838         0.022692     -0.071587     -0.051979
O	      2.23035     21.04351     21.02662         0.017450      0.023758      0.004782
O	      2.05926     23.03994     22.97390        -0.008975     -0.026710      0.006658
