# total energy = -168.73574730 eV
 
CRYSTAL
PRIMVEC
0.103407 23.003264 23.309051 
2.089896 2.110677 4.227965 
2.115141 10.443006 8.498250 
PRIMCOORD
22 1
Li	      2.07669      2.15505      4.23336         0.012032     -0.006030     -0.014541
Li	      0.14368      4.12909      4.16331        -0.011295     -0.002430      0.007082
Li	      2.13779     12.56627     14.82039         0.000890      0.002216      0.003404
Li	      4.15731     29.33730     29.75183         0.010461      0.004377     -0.006066
Li	      2.22368     31.31335     29.68236        -0.013031      0.004485      0.014920
Ti	      2.10521     12.47205     10.64043        -0.075280     -0.020940     -0.009582
Ti	      4.16259     18.78376     19.08235        -0.055447     -0.026451      0.020697
Ti	      2.21503     18.75621     17.03804         0.037336     -0.080894      0.029457
Ti	      2.08556     14.71014     16.87676        -0.040104      0.078595     -0.038530
Ti	      0.13894     14.68203     14.83420         0.052336      0.031557     -0.024749
Ti	      2.19324     20.99585     23.27595         0.077005      0.015871      0.007131
O	      2.15624     25.10134     25.41610         0.000230     -0.005349     -0.009450
O	      2.23535     27.26576     27.60275         0.004962      0.017883      0.038903
O	      2.06567      6.20232      6.31359        -0.006777     -0.017527     -0.038440
O	      2.14303      8.36540      8.49919         0.010697      0.006126      0.009315
O	      2.13576     10.46078     10.64013         0.009481      0.074984      0.023488
O	      2.09282     12.48991     12.68560        -0.016034     -0.063958     -0.042114
O	      2.18672     14.54897     14.75383         0.057885      0.019491      0.030221
O	      2.14994     16.73309     16.95806        -0.000408      0.001663     -0.000495
O	      2.11329     18.91645     19.16025        -0.058210     -0.012521     -0.019751
O	      2.20801     20.97641     21.23072         0.015404      0.063531      0.039286
O	      2.16468     23.00662     23.27544        -0.012131     -0.084677     -0.020185
