# total energy = -90.77962723 eV
 
CRYSTAL
PRIMVEC
-4.059332 0.000006 0.000008 
-0.000008 0.000000 4.059225 
-0.000021 8.423985 -0.000079 
PRIMCOORD
16 1
Li	     -2.02970      2.10569      0.00030         0.002519      0.003654     -0.003162
Li	     -2.02876      0.00063      2.02997        -0.001289      0.003316      0.000827
Li	     -2.02914      4.21594      2.02960         0.000330     -0.003684      0.001181
Li	     -4.05704      6.32098      2.03038        -0.005523      0.000504     -0.000791
Mn	     -4.05848      0.00197      0.00030         0.000248      0.000760      0.000675
Mn	     -4.05882      4.21390      0.00005         0.001149      0.000381      0.000608
Ni	     -2.02844      6.31985      0.00074        -0.000047      0.009410     -0.001493
Ni	     -4.05920      2.10839      2.02960         0.001607     -0.005445      0.001853
O	     -2.02954      2.10781      2.02958         0.001493      0.002121      0.001398
O	     -4.05887      4.09495      2.02961         0.001454      0.133428      0.001213
O	     -2.02807      6.32037      2.03038        -0.001414     -0.001080     -0.001333
O	     -4.05919      2.10736      0.00004         0.001321     -0.000641      0.000136
O	     -2.02909      4.33365      0.00012         0.000009     -0.138400      0.000681
O	     -4.05851      0.12119      2.02990        -0.000960     -0.133986      0.000149
O	     -4.05802      6.32058      0.00078        -0.001575      0.000628     -0.001766
O	     -2.02883      8.30719      0.00039         0.000678      0.129033     -0.000176
