# total energy = -168.65383495 eV
 
CRYSTAL
PRIMVEC
0.018090 22.713061 23.113695 
2.074176 2.063859 4.205067 
2.073195 6.194458 4.204131 
PRIMCOORD
22 1
Li	      0.22986     22.71373     23.04159        -0.002218     -0.000019     -0.025622
Li	      2.02144     14.45473     12.70881         0.007406      0.000269      0.012366
Li	      2.06805     16.51935     14.73422         0.008911     -0.000386      0.025409
Li	      2.06875     22.71378     21.05948        -0.000873     -0.001042      0.007892
Li	      2.08987     20.64796     23.10547        -0.011953     -0.001658      0.009383
Ti	      4.14232     10.32500     10.51565         0.024537     -0.001598     -0.050563
Ti	      2.02611      6.19376      8.24223        -0.015196      0.004972      0.001189
Ti	      2.08439     12.38914     10.53822        -0.009828     -0.001526      0.000755
Ti	      2.06203     18.58438     16.85727         0.016273     -0.005248     -0.004926
Ti	      2.08872     16.51866     18.91087        -0.017960      0.001270      0.006661
Ti	      2.07877     26.84193     25.25044        -0.003655      0.005767      0.019864
O	      2.08532     24.77752     25.25344        -0.029383      0.001650     -0.015861
O	      2.02548      4.13011      4.20670        -0.006199     -0.002048     -0.035881
O	      2.07447      6.19558      6.10704        -0.011310     -0.001432      0.006384
O	      2.01716      8.25977      8.39332        -0.012646     -0.001919     -0.012117
O	      2.04076     10.32381     10.45170        -0.012708      0.001538     -0.010625
O	      2.03901     12.38942     12.58007        -0.014840     -0.000288     -0.008836
O	      2.07388     14.45356     14.75030         0.007943      0.003293     -0.001076
O	      2.08161     16.51913     16.83677        -0.001964     -0.007288      0.032449
O	      2.10623     18.58402     18.92942        -0.000349      0.004980     -0.008171
O	      2.09237     20.64869     21.02278         0.006437     -0.000487      0.005573
O	      2.19699     22.71281     23.22525         0.079574      0.001199      0.045750
