# total energy = -168.12310543 eV
 
CRYSTAL
PRIMVEC
0.000216 2.082621 2.083029 
22.667126 -0.307963 23.223926 
4.121361 2.082916 2.083159 
PRIMCOORD
22 1
Li	      4.12212      1.95920      2.21146         0.002407      0.012035     -0.010305
Li	      2.06208      0.10331      1.98632        -0.000893      0.017934     -0.021276
Li	     12.36379      1.84438     10.65502         0.000178     -0.018658      0.022350
Li	     10.30325     -0.01179     10.43047         0.000233     -0.010788      0.008029
Li	     16.48675     -0.22260     16.89285        -0.000012      0.002228     -0.004058
Ti	      4.12234     -0.04939      4.22071        -0.003498      0.064332     -0.066584
Ti	     10.30309      1.99730      8.42048        -0.001896     -0.083051      0.082495
Ti	     16.48563      3.99266     16.83869        -0.000861      0.056043     -0.056927
Ti	     14.42594     -0.18542     14.77376        -0.001044     -0.003827      0.006241
Ti	     22.66984      3.90695     23.17652        -0.007334      0.001227     -0.005713
Ti	     20.60741     -0.27203     21.10951         0.000970     -0.050316      0.049914
O	     24.72926      1.88675     25.19825        -0.004307      0.087659     -0.088026
O	      4.12212      1.95930      4.29398         0.001043     -0.040143      0.040162
O	      6.18291      2.02718      6.30810         0.000455     -0.015847      0.014778
O	      8.24233      2.00250      8.41694         0.005180      0.026005     -0.026022
O	     10.30306      2.07038     10.43044         0.001219      0.047526     -0.044710
O	     12.36414      1.83519     12.74987        -0.001418     -0.097272      0.097266
O	     14.42462      1.92313     14.74775         0.004341      0.016822     -0.015196
O	     16.48674      1.85677     16.89317         0.001722      0.003736     -0.002459
O	     18.54774      1.86010     18.97529        -0.002678      0.006280     -0.005947
O	     20.60876      1.86449     21.05522         0.001745     -0.007619      0.008258
O	     22.66818      1.79809     23.20252         0.004447     -0.014306      0.017732
