# total energy = -145.06276563 eV
 
CRYSTAL
PRIMVEC
0.060333 10.102669 10.582388 
4.205148 6.032511 10.635650 
4.152666 2.016415 2.144842 
PRIMCOORD
20 1
Li	      4.23957      6.08462     10.59798        -0.013665     -0.014195     -0.000820
Li	      8.34772      9.99824     14.80941         0.006907      0.006100     -0.038155
Li	      2.17518     12.18673     14.93287        -0.006891     -0.006485      0.041468
Li	      6.22248      5.99693      8.56405         0.017933      0.015242      0.000651
Li	      6.24347      8.02798     10.64739         0.002046     -0.006880      0.014962
Li	      4.28077     14.15515     19.09582        -0.004142      0.008013     -0.016793
Ti	      2.20400     10.18529     12.80137         0.003995      0.110898     -0.158217
Ti	      4.11365      5.96653      6.30629        -0.003621     -0.117811      0.153639
Ti	      4.20379      8.06118      8.51829        -0.053442     -0.052211      0.086548
Ti	      2.11459      8.09035     10.58852         0.053419      0.062701     -0.083759
O	      2.08253      1.99801      2.15221        -0.000485     -0.079933     -0.001890
O	      4.26744     12.03809     14.92801         0.049514      0.005247      0.060372
O	      6.25506     10.14612     14.81462        -0.043769     -0.000057     -0.061387
O	      4.17542      4.05130      6.37306        -0.000827      0.076905     -0.002253
O	      2.08803      6.07410      6.38526        -0.008401     -0.035263     -0.076871
O	      4.20562      6.15094      8.36425        -0.004764      0.104183     -0.036753
O	      2.20286      8.10650      8.60645         0.072059     -0.037164      0.091429
O	      4.11538      8.04559     10.50065        -0.076364      0.033492     -0.088476
O	      2.11245     10.00121     10.74248         0.003019     -0.109776      0.043531
O	      4.23000     10.07729     12.72267         0.007478      0.036993      0.072773
