# total energy = -144.75032998 eV
 
CRYSTAL
PRIMVEC
0.019190 4.159180 4.225752 
10.452254 2.145116 12.659197 
6.257140 2.093843 4.240620 
PRIMCOORD
20 1
Li	     10.46391      2.21679     12.71267         0.005183      0.028906     -0.008562
Li	      2.10339      4.08662      6.21899         0.023446      0.003927     -0.052211
Li	     14.60730      6.28669     16.91998         0.001236      0.000300     -0.001266
Li	      8.35432      4.23978      8.52014        -0.003377     -0.009429     -0.004695
Li	      4.15026      2.15334      6.31058        -0.004588      0.007695     -0.019231
Li	      6.31773      2.05039      8.38853         0.016259     -0.008289      0.009181
Ti	     10.40376      6.28255     12.66059        -0.078368     -0.057100     -0.016498
Ti	     12.56194      6.32489     14.90480        -0.052611      0.165658      0.334061
Ti	      6.34854      4.09406      6.38424        -0.025486     -0.179511     -0.052874
Ti	     14.53693      4.31357     14.79640         0.011867      0.039668     -0.048181
O	     12.55651      4.21420     14.75525         0.077631      0.082325      0.040763
O	      4.18406      2.00962      4.10634        -0.026078     -0.116707     -0.097324
O	      6.28242      2.12279      6.34149         0.042975      0.050141      0.007853
O	      8.45775      6.25073     12.80345         0.051339      0.032358      0.097233
O	     10.44676      6.30203     14.71694         0.003867     -0.019977      0.061599
O	     12.53874      6.30152     16.73261         0.000746     -0.008926     -0.361833
O	      4.24266      4.19205      6.44926         0.014373      0.053115      0.017920
O	      6.20277      4.19469      8.41776         0.045224     -0.008385      0.001338
O	      8.32014      4.17740     10.53352        -0.109540     -0.160390      0.007447
O	     10.43891      4.30593     12.84500         0.005902      0.104622      0.085283
