# total energy = -144.88400571 eV
 
CRYSTAL
PRIMVEC
-0.024251 4.116735 4.118594 
10.590523 -0.026300 10.262159 
4.236263 2.046303 2.047115 
PRIMCOORD
20 1
Li	      2.09637      4.12139      6.15775        -0.000450     -0.005209     -0.002963
Li	      8.45098      6.10629     10.31204         0.006350     -0.032634      0.029377
Li	      6.33529      4.10873     10.26808        -0.000797      0.007734     -0.012119
Li	     12.68757      6.13410     14.38343         0.002121     -0.016587      0.007076
Li	     10.58527      2.04780     12.30266        -0.002500      0.017110     -0.009559
Li	      8.46454      2.04667     10.25782        -0.001492      0.004582     -0.002098
Ti	     10.56783      4.12774     14.34240         0.013737      0.081808     -0.089481
Ti	      2.11242      2.10241      4.05801        -0.000787      0.129662     -0.083075
Ti	      4.22609      2.04794      6.15961        -0.004856     -0.043687      0.050914
Ti	     10.58152      3.99028     10.36302        -0.010711     -0.095155      0.099535
O	      2.22504      2.02591      2.11437         0.077784      0.020227      0.130938
O	      4.17393      2.05628      4.09408        -0.050959     -0.020182      0.025810
O	      6.27121      2.07305      6.22558        -0.029012      0.016329     -0.025822
O	      8.33006      2.12516      8.19178        -0.076849      0.069552      0.004010
O	     10.61469      2.02542     10.26809        -0.026713      0.035825      0.004880
O	      1.99351      4.04373      4.13473        -0.093465     -0.146568     -0.023886
O	      4.28370      4.11341      6.15085         0.050404     -0.031607      0.021571
O	      6.41782      4.03102      8.18482         0.035352      0.016602     -0.016268
O	      8.59605      4.10861     10.17618         0.083073     -0.004680     -0.061980
O	     10.54735      4.08345     12.32557         0.029769     -0.003119     -0.046860
