# total energy = -144.59855931 eV
 
CRYSTAL
PRIMVEC
0.064880 10.160792 10.356799 
4.242680 4.092739 8.284242 
4.243606 4.092467 4.141785 
PRIMCOORD
20 1
Li	      4.31404      6.23989     10.35693         0.027406      0.025263      0.001685
Li	      2.08075      2.14664      4.14302        -0.036314     -0.006116      0.001936
Li	      4.30839      8.05902      8.28612         0.040286      0.006790      0.001503
Li	      6.31986      8.05808     10.35665        -0.027925     -0.023776     -0.000376
Li	      8.48350     16.33765     20.71349        -0.053594     -0.004467     -0.001029
Li	      2.21551      8.12107     10.35820         0.052348      0.001924      0.000197
Ti	      4.26744     14.16952     14.49973        -0.095147     -0.081348     -0.001088
Ti	      2.17837     10.23208     12.42927        -0.010466      0.331762      0.000251
Ti	      4.27670     10.13406     10.35786         0.019124     -0.341815     -0.002077
Ti	      2.18917      6.19584      8.28737         0.087182      0.080834      0.000408
O	      2.15573     12.06695     12.42846         0.030643     -0.334281      0.003657
O	      4.26565     12.24354     14.50079        -0.005772      0.110703     -0.002733
O	      6.50655      8.26506     12.42793         0.112347      0.069162     -0.000557
O	      4.36885     14.20542     16.57289        -0.006734     -0.008093     -0.001968
O	      6.32944     10.25296     14.49852         0.008337      0.007982      0.000596
O	      4.12746      6.03219      8.28659        -0.111835     -0.063586     -0.001333
O	      2.19079      8.12247      8.28646         0.003841     -0.116454      0.000783
O	      4.30010      8.29863     10.35794        -0.032602      0.345114      0.000656
O	      2.14485     10.16073     10.35808        -0.030800     -0.008051     -0.000922
O	      4.31108     10.20511     12.42896         0.029676      0.008452      0.000412
