# total energy = -145.06251302 eV
 
CRYSTAL
PRIMVEC
0.082022 10.224265 10.701834 
4.231396 8.210325 12.844051 
4.187124 6.139403 6.448997 
PRIMCOORD
20 1
Li	      4.29553     16.32611     17.14311         0.001912     -0.007336     -0.020226
Li	      4.22694     10.32892     14.89575         0.007817     -0.001303     -0.039551
Li	      6.38910     18.35113     21.52035        -0.010278     -0.000514      0.038591
Li	      2.08788      4.14330      6.42886        -0.001756      0.010539      0.020761
Li	      0.08615      6.08678      6.37737        -0.017651      0.008746      0.003779
Li	      6.29834     14.38425     17.19165         0.019574     -0.009222      0.000044
Ti	      6.33533     16.36201     19.26854         0.068804     -0.027479     -0.083452
Ti	      0.05007      4.10819      4.30298        -0.075980      0.016450      0.090473
Ti	      6.37926     12.19705     15.08332        -0.011837     -0.110511     -0.175587
Ti	      4.23562     16.48277     21.33330         0.021671      0.122424      0.161736
O	      6.40040     20.50623     25.71870         0.001811      0.062486      0.003649
O	      4.29172     12.35797     15.06776         0.042099     -0.025079      0.050860
O	      2.08478      4.08274      4.31240        -0.010078      0.037612     -0.069377
O	      4.28228     14.22931     16.99157        -0.000694     -0.064555     -0.021499
O	      2.10245      6.24099      6.58040        -0.001585      0.064928      0.024091
O	      4.29939     16.38714     19.25984         0.013064     -0.035823      0.075513
O	      2.09232      8.11219      8.50425        -0.044043      0.024387     -0.048253
O	      4.21523      8.17438     10.69785        -0.002638     -0.067706     -0.006494
O	      2.23570     10.20743     10.84149         0.060264      0.034362      0.061945
O	      4.14866     10.26295     12.73123        -0.060477     -0.032406     -0.067002
