# total energy = -162.78611236 eV
 
CRYSTAL
PRIMVEC
-0.167020 23.447808 22.779901 
2.052441 2.124149 4.134279 
1.992384 10.635782 8.290627 
PRIMCOORD
22 1
Li	      1.94713      4.36363      6.19240        -0.016388     -0.001565      0.003250
Li	      2.05167     14.79274     12.43705         0.017476      0.002413     -0.006860
Li	      1.90174     12.83935     14.46096         0.015982      0.020851     -0.008745
Li	      0.01420     12.78802     12.39585         0.020448      0.010797     -0.015316
Li	      3.81981     29.81847     29.01559        -0.018060     -0.007650      0.017125
Li	      1.93186     29.76225     26.95127        -0.011248     -0.019229      0.007811
Ti	      1.99627     10.60311      8.30463        -0.085737      0.078184      0.004543
Ti	      2.00503      8.54999     10.31920         0.088722     -0.064091     -0.005919
Ti	      3.91332     21.25942     20.64765        -0.076881      0.082527     -0.050977
Ti	      1.88668     25.55670     22.78727        -0.020493     -0.004688      0.006650
Ti	     -0.07975     21.34921     20.76566         0.081227     -0.084543      0.052131
O	      1.88086     25.51325     24.82891         0.008988     -0.030278     -0.016320
O	      1.96571     27.56492     26.92510         0.077642     -0.043891     -0.004732
O	      1.92865      6.51850      6.21876        -0.074271      0.038353     -0.003774
O	      2.03535      8.49258      8.29634        -0.013520      0.018457      0.005809
O	      1.96657     10.66072     10.33502         0.017699     -0.039591     -0.003984
O	      2.07171     12.63837     12.41179         0.058949     -0.045910      0.002910
O	      1.86806     15.03911     14.48663        -0.068672      0.049626      0.007756
O	      1.95256     17.09832     16.58145        -0.006066      0.039832      0.012307
O	      1.94759     19.07973     18.61195         0.061401     -0.044538     -0.028773
O	      1.91618     21.30341     20.70536         0.000849      0.004525      0.001024
O	      1.88446     23.52429     22.79705        -0.058047      0.040408      0.024083
