# total energy = -162.76093035 eV
 
CRYSTAL
PRIMVEC
0.000052 2.074884 2.075411 
22.574578 -0.278106 23.107749 
6.171124 2.064496 4.161384 
PRIMCOORD
22 1
Li	     22.56285     -0.16954     22.99973         0.011457      0.019365     -0.023736
Li	     12.33861      3.95818     12.64356        -0.004426     -0.016160      0.016693
Li	      8.20008     -0.09331      8.39486         0.008324     -0.006948      0.013434
Li	     10.26586      0.01896     10.36307        -0.015596     -0.010128      0.011847
Li	     24.64035      3.76998     25.27991         0.006151      0.012254     -0.015858
Li	     20.53186      1.81833     23.08355        -0.004263      0.008092     -0.008165
Ti	      8.11160      2.05154      6.25103        -0.123652      0.075229     -0.068571
Ti	      4.21596      2.01727      6.28206         0.126105     -0.078412      0.069053
Ti	     18.44846      1.92074     16.77631        -0.025107      0.073544     -0.048122
Ti	     14.36432     -0.17371     14.70108        -0.008924      0.013376     -0.012103
Ti	     16.45779      1.86961     18.86665         0.034307     -0.092529      0.065694
O	     24.62792      1.70277     25.27489        -0.006329     -0.077717      0.084438
O	      4.05534      1.98662      4.23573        -0.013669     -0.039804      0.038137
O	      6.16447      2.03478      6.26597        -0.004347     -0.003308      0.002196
O	      8.27290      2.08210      8.29702         0.014021      0.036612     -0.036742
O	     10.27555      2.08770     10.36561         0.014533      0.082675     -0.083790
O	     12.32015      1.85832     12.67078        -0.011112     -0.049500      0.027985
O	     14.35282      1.88885     14.71009        -0.053762     -0.030686      0.032746
O	     16.38791      1.91528     16.74883        -0.016625     -0.011421     -0.005336
O	     18.51370      1.87254     18.89645         0.038114      0.025907     -0.010310
O	     20.55529      1.90451     20.92816         0.035720      0.010859     -0.014052
O	     22.58359      1.93139     22.97173        -0.000921      0.058701     -0.035439
