# total energy = -162.77616702 eV
 
CRYSTAL
PRIMVEC
-0.000174 2.070029 2.068560 
22.498181 -0.108900 22.861189 
12.319285 2.078095 10.333688 
PRIMCOORD
22 1
Li	     12.32543      4.04710     12.50251        -0.002430      0.001313      0.001485
Li	     14.32669      2.01863     12.46358         0.001110     -0.015029      0.013529
Li	     16.40011      2.04661     14.50300         0.006466     -0.012796      0.011404
Li	      6.14934      2.05095      8.29157        -0.004189      0.013195     -0.011258
Li	      8.22151      2.07869     10.33131         0.001465      0.019119     -0.017350
Li	     10.22123      0.04984     10.29069         0.006165      0.001627     -0.002015
Ti	     24.47410      2.01442     22.80923        -0.090845      0.025947     -0.028230
Ti	     26.66763      4.02194     27.01102         0.085083     -0.030961      0.027828
Ti	     28.68396      4.06807     29.03049         0.003580     -0.000135     -0.010987
Ti	     18.37894     -0.03123     18.64417        -0.088998      0.001792     -0.010005
Ti	     20.57127      1.97492     22.84554         0.078212     -0.038956      0.040137
O	     24.58596      2.02480     24.86906         0.001379      0.038604     -0.037180
O	     26.57964      1.97471     26.98793         0.007459      0.039269     -0.024744
O	     28.67481      1.99336     29.03637         0.099483      0.044765     -0.030843
O	      8.30331      2.16502      8.17836         0.079714      0.024321     -0.017289
O	     10.27253      2.16846     10.24308         0.045934      0.069305     -0.069409
O	     12.27517      1.92920     12.55080        -0.039378     -0.066075      0.068256
O	     14.24504      1.93220     14.61687        -0.073371     -0.007242      0.004951
O	     16.37062      1.99515     16.61973        -0.103975     -0.041568      0.037118
O	     18.46900      2.01467     18.66758        -0.014255     -0.033268      0.023450
O	     20.46119      1.96373     20.78656         0.003393     -0.033345      0.033116
O	     22.52344      1.99431     22.82809        -0.002001      0.000115     -0.001960
