# total energy = -162.80778538 eV
 
CRYSTAL
PRIMVEC
-0.000063 2.087410 2.087377 
22.198193 -0.197393 23.157886 
8.066141 2.045614 6.303687 
PRIMCOORD
22 1
Li	      7.97216      2.04969      6.29810         0.016633     -0.009507      0.009428
Li	     12.13745      4.02774     12.67289        -0.033324     -0.011408      0.005177
Li	      6.01383      0.01541      6.24747         0.034664      0.008382     -0.009069
Li	     10.18055      1.98939     12.61992        -0.020800      0.015657     -0.013851
Li	     22.17634      1.90046     21.05870         0.015289     -0.006403      0.004819
Li	     18.17329      1.94421     21.01459        -0.010698      0.002761     -0.000131
Ti	      2.11764      2.09123      4.17038         0.133577      0.012785     -0.013938
Ti	     16.03517      1.95015     14.74676        -0.134007     -0.020903      0.022750
Ti	     20.15289      1.93091     18.94164         0.024753      0.027885     -0.037873
Ti	     24.20816      1.90083     23.14571        -0.005685      0.003476     -0.004213
Ti	     20.19749      1.91261     23.13322        -0.020430     -0.020325      0.030492
O	     24.19637      1.89042     25.24348         0.006404     -0.001988      0.006667
O	     26.23296      1.88804     27.33327        -0.082625      0.007513     -0.008008
O	      6.03935      2.14790      6.20035        -0.005536      0.044752     -0.052030
O	      8.11303      1.96272      8.47267         0.035071      0.011972     -0.015057
O	     10.03946      2.07832     10.44528        -0.036748     -0.005079      0.007538
O	     12.11286      1.89426     12.71570         0.005782     -0.057204      0.063584
O	     14.11735      1.95578     14.74144         0.083959     -0.004744      0.007428
O	     16.15379      1.95329     16.83152        -0.004884      0.002918     -0.005447
O	     18.14671      1.93221     18.93935         0.020029      0.008583     -0.005908
O	     20.17520      1.92169     21.03740        -0.001801      0.001612     -0.000846
O	     22.20368      1.91147     23.13517        -0.019623     -0.010737      0.008486
