# total energy = -180.30850063 eV
 
CRYSTAL
PRIMVEC
-0.071766 12.652391 12.660078 
4.092445 8.430515 12.640544 
4.093587 10.532853 10.536953 
PRIMCOORD
24 1
Li	      2.05783     12.70234     14.81574         0.009353      0.040921      0.041357
Li	      0.07191      2.11311      2.11701         0.063173      0.021953      0.017526
Li	      5.97866     25.23557     27.35247         0.015395     -0.016948     -0.016290
Li	      2.05517     16.86450     18.97824        -0.034944      0.021001      0.019806
Li	      4.02579     18.97096     18.98156        -0.008957     -0.010420     -0.010444
Li	      5.95817     18.90179     21.01435         0.027675     -0.032999     -0.028603
Ti	      0.00098     12.61802     12.63090         0.044848     -0.009251     -0.040046
Ti	      4.00712     14.74953     14.75867        -0.267184     -0.029836     -0.029735
Ti	      3.92651     16.82750     16.83694        -0.270642     -0.167767     -0.168677
Ti	      2.03559      6.31930      8.42649         0.058297      0.054924      0.064276
Ti	     -0.00746     10.61720     10.62784        -0.061358      0.062343      0.048524
Ti	      5.99028     21.07925     23.18747         0.023197      0.025614      0.028582
O	      2.16887     14.77419     14.78303         0.314136     -0.028208     -0.025966
O	      4.13874     14.76574     16.87809        -0.046345      0.006679      0.004513
O	      2.04199     16.89120     16.90195         0.236370      0.002087      0.002662
O	      4.09799     16.80217     18.91369         0.197799      0.033389      0.037032
O	      2.00381      6.38060      6.38558        -0.112281     -0.064310     -0.064949
O	      3.98712     19.03321     21.14854        -0.164848     -0.000808      0.001686
O	      2.02876      8.36882      8.37375         0.092154      0.081430      0.083393
O	      3.83875     21.08821     23.20765         0.007154      0.067636      0.056571
O	      6.14672     18.97903     23.19211         0.035820     -0.005542      0.007169
O	      4.05988     10.44992     12.55739        -0.037171     -0.034332     -0.035390
O	      6.13950     21.03461     25.24432        -0.106702     -0.056920     -0.027422
O	      4.12446     12.76333     14.87593        -0.014940      0.039363      0.034426
