# total energy = -198.23211306 eV
 
CRYSTAL
PRIMVEC
-0.000159 2.075405 2.074993 
27.042173 -0.447153 27.421034 
8.316572 2.002093 6.297819 
PRIMCOORD
26 1
Li	     27.02821     -0.41948     27.39095         0.001962     -0.015094      0.014539
Li	      4.33122      1.94575      6.35193        -0.010482     -0.004105      0.003770
Li	      6.34542      2.10603      8.26696         0.004280     -0.007775      0.009999
Li	     22.84907      1.64459     21.17789         0.014515      0.015901     -0.014882
Li	     24.74557      1.82020     23.07760        -0.009144     -0.006602      0.009952
Li	     29.08680      1.60146     27.44551        -0.012254      0.013195     -0.014382
Ti	     10.32426      1.88768      8.48381        -0.057539     -0.013099      0.025859
Ti	      8.38502      1.92084     10.52853        -0.040648      0.013810     -0.012448
Ti	     18.62731      1.87089     16.80169        -0.024377      0.052575     -0.058150
Ti	     12.72104      1.87175     14.72612         0.399778     -0.005174      0.008597
Ti	     26.93070      1.69209     25.28058        -0.084248     -0.041584      0.046517
Ti	     31.22620      3.68348     31.59026         0.089529      0.049532     -0.042431
Ti	     24.99107      1.70822     27.33742        -0.001897     -0.013263     -0.007049
O	     29.14121      1.50548     29.61586         0.035132     -0.056950      0.056954
O	      4.12200      2.03925      4.18541        -0.054441      0.040729     -0.032010
O	      6.26114      2.12612      6.17203        -0.007549      0.047877     -0.042512
O	      8.30005      1.92115      8.45330         0.038601     -0.035545      0.027756
O	     10.56088      1.90844     10.53862         0.028557      0.011778     -0.017233
O	     12.43788      1.82331     12.69947        -0.006237     -0.057673      0.053169
O	     14.55763      1.86468     14.73405        -0.369354     -0.007085      0.003891
O	     16.56721      1.84256     16.83158         0.022835      0.033320     -0.028294
O	     18.75164      1.82575     18.92185         0.017346     -0.000890      0.001317
O	     20.72376      1.86074     20.96208         0.007595      0.043022     -0.041621
O	     22.78194      1.62227     23.27524         0.009447     -0.048466      0.038704
O	     24.91907      1.76720     25.20396        -0.004665     -0.050223      0.040266
O	     27.07320      1.70883     27.33881         0.013259      0.041790     -0.030277
