# total energy = -198.34744904 eV
 
CRYSTAL
PRIMVEC
0.000374 2.073569 2.073543 
26.874242 -0.450561 27.412306 
10.335342 1.968612 8.401194 
PRIMCOORD
26 1
Li	     26.79426     -0.32564     27.28268        -0.007204     -0.007576      0.010194
Li	     14.55024      3.84358     14.81765         0.012349      0.009713     -0.008976
Li	      6.22986      2.09494      8.26912        -0.001871      0.011573     -0.011464
Li	     12.52675      1.96829     14.61792         0.012471     -0.000937      0.003292
Li	     28.81801      1.55070     27.48115        -0.012993      0.000195     -0.003027
Li	     35.11474      1.42106     33.83323        -0.001967     -0.008208      0.007646
Ti	     12.40304      4.00505     12.58116        -0.003834      0.005431      0.000318
Ti	     18.62832      3.87536     18.93149         0.005584      0.031748     -0.037314
Ti	     20.60269      1.78630     18.94997        -0.055968     -0.007561      0.001902
Ti	     14.44757     -0.23064     14.74603        -0.043623      0.058064     -0.069970
Ti	     26.89517      3.74844     27.35457         0.043881     -0.059398      0.073886
Ti	     20.74273      1.73389     23.14874         0.048628     -0.000195      0.000407
Ti	     22.71944     -0.35719     23.16909        -0.014052     -0.034131      0.038134
O	     28.98715      1.57978     29.52570         0.024022     -0.027252      0.016815
O	     30.96802      1.57919     31.59945        -0.031921      0.003473     -0.002753
O	      6.21392      2.11860      6.17350        -0.002760      0.059171     -0.059853
O	      8.25573      1.85002      8.51470         0.008592     -0.058967      0.058732
O	     10.37768      1.94033     10.49917         0.034982      0.004775     -0.000002
O	     12.35924      1.93876     12.57447        -0.021611      0.021486     -0.018001
O	     14.51374      1.78550     14.80265        -0.008885     -0.049414      0.047848
O	     16.51982      1.80103     16.85993        -0.008281     -0.036384      0.033390
O	     18.56712      1.73491     18.99864        -0.040754      0.005802     -0.002726
O	     20.67232      1.75993     21.04939         0.001732     -0.001588      0.002516
O	     22.77603      1.78386     23.10114         0.038659     -0.004669      0.004476
O	     24.82548      1.71627     25.24141         0.013121      0.034879     -0.031023
O	     26.83066      1.73238     27.29863         0.011702      0.049969     -0.054449
