# total energy = -197.89890116 eV
 
CRYSTAL
PRIMVEC
-0.000590 2.082046 2.081627 
27.129649 -0.335637 27.389467 
4.173649 2.081339 2.081154 
PRIMCOORD
26 1
Li	      4.20556      4.05306      4.27684        -0.011466      0.004802     -0.005557
Li	      2.10589      2.18480      4.06169         0.005515      0.014314     -0.013009
Li	     12.52337      3.94047     12.71091         0.003717     -0.010902      0.010493
Li	     10.43695      2.07272     12.49824         0.002473      0.007261     -0.008056
Li	     20.88907      3.82615     21.14849         0.006347     -0.009947      0.010559
Li	     18.81503      1.96054     20.93615        -0.013156     -0.003204      0.002038
Ti	      4.18458      2.03695      6.29101         0.021757      0.097640     -0.094928
Ti	     10.43708      4.08380     10.48573         0.020520     -0.064231      0.074530
Ti	     12.52545      1.92831     14.72386         0.013208      0.062336     -0.070478
Ti	     18.79379      3.97454     18.91919         0.015769     -0.099282      0.096957
Ti	     20.94431      1.81346     23.16426         0.002340      0.046105     -0.044648
Ti	     26.89979      1.79408     25.25456         0.090955      0.002204      0.003128
Ti	     25.11758      1.78518     27.35521         0.012633     -0.043905      0.037945
O	     29.24670      1.85770     29.35978        -0.028093      0.040317     -0.036482
O	      4.19089      1.96445      4.28217        -0.000885     -0.081272      0.073514
O	      6.27230      2.02955      6.29733        -0.003741     -0.010516      0.004716
O	      8.35237      2.00910      8.39935        -0.006302      0.013342     -0.014259
O	     10.43787      2.07692     10.41152         0.007019      0.060351     -0.055104
O	     12.52581      1.85311     12.71684         0.003517     -0.059470      0.054069
O	     14.61372      1.92064     14.72906        -0.001400     -0.013661      0.016469
O	     16.70715      1.90026     16.83098         0.001861      0.016552     -0.007144
O	     18.79978      1.96503     18.84648        -0.001969      0.090044     -0.080997
O	     20.89977      1.73802     21.15611        -0.030524     -0.054607      0.042424
O	     22.98486      1.80149     23.17045        -0.023342      0.002078     -0.009305
O	     24.81334      1.79971     25.25983        -0.045261     -0.002032     -0.000618
O	     27.15984      1.79110     27.34162        -0.041492     -0.004317      0.013742
