# total energy = -198.82170512 eV
 
CRYSTAL
PRIMVEC
-0.039585 27.052986 27.142136 
2.094147 4.159846 6.262823 
2.069655 18.721942 16.706922 
PRIMCOORD
26 1
Li	      4.05546     27.07528     27.10636        -0.005307     -0.002192      0.016286
Li	      0.19083     10.42124     10.50032        -0.011264     -0.009578     -0.003469
Li	      2.08293     16.65981     18.70460         0.008188      0.013445      0.004214
Li	      2.00175     37.36934     35.63583        -0.009405      0.010483     -0.011750
Li	      4.05260     43.68025     43.91186        -0.013190      0.012433      0.015017
Li	      2.09713     27.04657     29.15093         0.018188      0.002861      0.000717
Ti	      4.08076     22.97952     23.04435         0.084581      0.018576      0.001829
Ti	      2.01870      6.25906      8.26151        -0.032412      0.000041     -0.078879
Ti	      0.14609      6.18388      6.25102        -0.035138     -0.008022     -0.041285
Ti	      4.08569     31.24202     31.37629         0.046473      0.025561      0.084666
Ti	      2.05155     33.23714     31.35680        -0.097214     -0.037312      0.036874
Ti	      2.00677     35.30864     33.41461        -0.023036     -0.007576      0.032716
Ti	      2.14639     29.16164     31.25519         0.052657     -0.019647     -0.029293
O	      2.04118     29.15060     29.29123         0.010713     -0.007198      0.047053
O	      1.99313     31.19325     31.32665        -0.000678     -0.019387     -0.014221
O	      2.26739     33.31358     33.38575        -0.036005      0.016213      0.007466
O	      1.98962     35.38019     35.44511         0.012204     -0.024235     -0.007892
O	      2.12685     37.46315     37.64845         0.028373     -0.010807      0.024661
O	      2.09465     12.43071     12.60684         0.007581     -0.000567     -0.008117
O	      2.06268     14.60028     14.60527         0.007306     -0.001717     -0.010122
O	      1.98731     16.71623     16.62518         0.007000      0.003188     -0.015685
O	      2.07322     18.74316     18.81882         0.002690      0.012772      0.018096
O	      2.11167     20.78227     20.85847         0.000710      0.021017     -0.023562
O	      2.06743     22.84361     22.95096        -0.010657     -0.007237      0.019558
O	      2.06385     24.93951     25.07018        -0.016493      0.021280      0.011349
O	      1.94896     27.02343     27.03096         0.004136     -0.002394     -0.076227
