# total energy = -198.73526745 eV
 
CRYSTAL
PRIMVEC
0.028901 26.706355 26.973731 
2.100903 2.053698 4.152648 
2.101181 6.163905 4.151122 
PRIMCOORD
26 1
Li	      2.00815     10.27172      8.47044         0.019487     -0.000749      0.005873
Li	      4.18819     14.37897     14.53267         0.007822      0.000098      0.022500
Li	      0.16436     10.27037     10.37180         0.002067      0.000177      0.000696
Li	      4.06932     24.65181     24.90659        -0.001326      0.000613      0.001118
Li	      0.04529     20.54418     20.74520        -0.007027     -0.001519     -0.021337
Li	      2.22510     24.65135     26.80798        -0.019298      0.000522     -0.006116
Ti	      0.03016     26.70587     26.97343        -0.003342      0.002125      0.006681
Ti	      2.11766      8.21432      6.25210         0.007712     -0.003787     -0.010606
Ti	      2.10190     14.38020     12.48416         0.010903     -0.000991     -0.041733
Ti	      2.10225     14.37829     16.58849         0.088339     -0.007682     -0.099318
Ti	      2.13120     20.54376     18.68957        -0.088977      0.008596      0.106630
Ti	      2.13117     20.54257     22.79525        -0.007992     -0.000329      0.028034
Ti	      2.11545     26.70880     29.02599        -0.016511      0.004826      0.016602
O	      2.15479     28.76293     28.99749         0.024788     -0.005071     -0.004654
O	      2.13136     30.81481     31.12605        -0.001449     -0.001439     -0.002116
O	      2.07797      6.16027      6.28032        -0.018545      0.004145      0.001387
O	      2.12735      8.21722      8.29630         0.028289     -0.001130     -0.008441
O	      2.18947     10.27001     10.49625         0.049440      0.000225      0.089082
O	      2.10586     12.32513     12.50709         0.043581     -0.002945      0.012094
O	      2.11859     14.37854     14.52432         0.002720      0.004191      0.017461
O	      2.09100     16.43364     16.56470        -0.032522     -0.002470      0.045063
O	      2.14270     18.48837     18.71373         0.025998      0.003936     -0.046317
O	      2.11494     20.54355     20.75481        -0.002970     -0.002046     -0.024054
O	      2.12714     22.59737     22.77175        -0.039999      0.003384     -0.012951
O	      2.04371     24.65282     24.78172        -0.047289     -0.000223     -0.080647
O	      2.10565     26.70627     26.98183        -0.023900     -0.002455      0.005070
