# total energy = -157.11539283 eV
 
CRYSTAL
PRIMVEC
0.047109 22.515607 23.186664 
2.077216 2.045672 4.221230 
2.087072 8.194285 6.321143 
PRIMCOORD
22 1
Li	      4.16122     10.23984     10.54367        -0.000346     -0.002015     -0.003239
Li	      2.08223      6.17218      8.38968        -0.001080      0.016470     -0.028270
Li	      0.03081      6.18257      6.35437         0.001657      0.001248      0.002960
Li	      0.04794      8.11413      8.36755         0.025077     -0.032409     -0.044511
Li	      4.15502     24.64051     25.36011        -0.018776      0.031364      0.045088
Li	      4.17519     26.57075     27.37463        -0.001886      0.000618     -0.003483
Li	      2.12378     26.58370     25.34003        -0.000462     -0.021408      0.028061
Ti	      2.09045     10.25916      8.45975         0.075439     -0.007591      0.026301
Ti	      2.09193     18.38283     16.87721         0.052244     -0.019832      0.085852
Ti	      2.11330     14.37145     16.85056        -0.043175      0.022111     -0.090771
Ti	      2.11644     22.49444     25.26994        -0.082941      0.008275     -0.017565
O	      2.02268     24.48180     25.37120        -0.113410     -0.074987     -0.046664
O	      2.10415     26.70497     27.51094         0.020269      0.128925      0.047871
O	      2.10239      6.04866      6.21885        -0.018108     -0.128823     -0.051111
O	      2.18367      8.27176      8.35887         0.117172      0.079259      0.043366
O	      1.99286     10.22104     10.43383        -0.093845      0.027573     -0.089885
O	      2.11082     12.29056     12.71352         0.006340      0.011263      0.043406
O	      2.09343     14.23586     14.87927         0.001795     -0.060276      0.067516
O	      2.10222     16.37713     16.86401         0.000313     -0.001478      0.001138
O	      2.11263     18.51864     18.84831        -0.009088      0.056448     -0.061335
O	      2.09496     20.46351     21.01425        -0.006732     -0.010337     -0.036357
O	      2.21303     22.53226     23.29593         0.089545     -0.024399      0.081633
