# total energy = -174.49843859 eV
 
CRYSTAL
PRIMVEC
0.042066 12.646721 12.281391 
4.242573 8.445233 12.281303 
4.242615 8.445199 8.187568 
PRIMCOORD
24 1
Li	      4.47299     21.23590     24.56452         0.040352      0.029547      0.000767
Li	      6.32591     21.10456     22.51750         0.001701     -0.000474      0.000325
Li	      0.09733      2.02678      2.04864         0.046420     -0.006415      0.000660
Li	      6.31243     23.17844     24.56438        -0.011089      0.003697     -0.000106
Li	      6.34814     25.18869     26.61135        -0.011480     -0.016590     -0.000443
Li	      4.19996     16.85993     16.37699        -0.032614      0.009509     -0.000050
Li	      2.19317     10.62857     12.28327         0.008647      0.012560      0.000255
Ti	      4.14248     12.52593     12.28298        -0.275138     -0.412849      0.000854
Ti	      8.36665     23.26325     26.61123        -0.436841     -0.022135      0.000892
Ti	      2.20702      6.26530      8.18948         0.087456     -0.111128     -0.001208
Ti	      2.17751      8.51305     10.23659         0.156321      0.102414     -0.000945
Ti	      4.25633     18.95790     18.42421        -0.064615      0.092484     -0.003555
O	      6.55039     23.24101     26.61134         0.380388      0.025643      0.000052
O	      4.30113     14.77184     16.37688        -0.024775      0.003566     -0.000238
O	      6.25137     12.81998     16.37690        -0.021307      0.160053     -0.000151
O	      4.32680     16.86879     18.42392         0.075810      0.042149      0.000015
O	      6.33685     14.81245     18.42385         0.052573      0.047869      0.000862
O	      4.27653     18.94033     20.47073         0.016094      0.000454      0.002861
O	      2.12771      8.35396      8.18962         0.005217      0.055220     -0.000863
O	      4.15222      8.34092     10.23643        -0.147179     -0.116493     -0.000743
O	      2.04476     10.42808     10.23647        -0.095908     -0.247248     -0.000121
O	      4.28170     10.69412     12.28315        -0.030797      0.347270     -0.000399
O	      6.54456     21.11106     24.56444         0.299507     -0.022687      0.000467
O	      4.29467     12.76530     14.32995        -0.018745      0.023580      0.000810
