# total energy = -174.96148482 eV
 
CRYSTAL
PRIMVEC
-0.008062 4.159365 4.122649 
6.287630 0.005472 6.166211 
6.285915 4.147848 2.060784 
PRIMCOORD
24 1
Li	      6.22825      4.11276      2.06934        -0.010567     -0.007943     -0.003038
Li	      8.41879      6.22904     10.33816         0.027833     -0.003448      0.017625
Li	      4.19781      2.14251      2.13236         0.014290     -0.003157      0.048734
Li	     10.46743      4.18875      6.23257         0.009691      0.016074     -0.002130
Li	      6.22172      2.07081      4.06430        -0.009713     -0.014301     -0.023405
Li	      2.12046      2.08316      4.06892        -0.000039      0.002313      0.001367
Li	      4.18994      4.11334      4.04152        -0.002663     -0.013864      0.006800
Ti	      2.17991      4.11348      6.13516         0.064657     -0.015081     -0.125767
Ti	      6.22749      6.21304      4.16313        -0.149979     -0.010291      0.082827
Ti	      8.45246      4.20877      8.29559         0.120346      0.049232      0.085384
Ti	      4.13360      2.09571      6.06303         0.018889     -0.026704     -0.278176
Ti	      6.20288      4.13453      6.17097        -0.096907      0.062121     -0.013130
O	      2.03324      2.09034      2.05179        -0.041960      0.005530      0.011299
O	     10.39515      4.17934      8.22883        -0.140534      0.063747     -0.008153
O	      4.20721      2.08743      4.22057        -0.031129      0.008736      0.273712
O	      6.37992      4.18878      4.16588        -0.034403      0.042618      0.100541
O	      6.23308      2.10409      6.22704         0.010996      0.063328      0.075018
O	      8.30036      4.14074      6.16916        -0.038100     -0.000083     -0.018017
O	      2.10318      4.16258      4.13059         0.006219      0.014696      0.001013
O	     10.60711      6.25370     10.19626         0.187210     -0.002522     -0.009277
O	      4.20837      4.19382      6.18974         0.054965     -0.050713      0.004039
O	      6.26521      6.15611      6.10947         0.011471     -0.097603     -0.153528
O	      6.36598      4.09471      8.18273        -0.020198     -0.058750     -0.074167
O	      8.36167      6.21696      8.25576         0.049626     -0.023934      0.000429
