# total energy = -174.86639623 eV
 
CRYSTAL
PRIMVEC
0.000056 2.082114 2.081743 
6.109591 -0.083792 6.329310 
8.129629 8.424502 -0.095952 
PRIMCOORD
24 1
Li	      8.14969     10.44963      2.04433         0.002450     -0.034365      0.033018
Li	     10.15796      4.18370      6.22605        -0.005317      0.036308     -0.037827
Li	      6.09994      8.39694      2.01045        -0.002228      0.005908     -0.004008
Li	      2.05873      2.16903      4.07770         0.004862     -0.000814     -0.002122
Li	      4.05553      2.04865      2.11822        -0.004243     -0.022370      0.020104
Li	      6.12232      4.16500      6.24459         0.000917      0.016257     -0.018660
Li	      8.11806      4.04140      4.28343        -0.000955     -0.002390      0.007839
Ti	      2.03350      2.10711     -0.02321        -0.004365     -0.003678     -0.000141
Ti	      5.98963      4.16562      2.08050        -0.075257     -0.053401      0.052458
Ti	      8.18138      8.36908      4.12091         0.015225      0.105979     -0.105164
Ti	      4.18800      2.04445      6.28280         0.080009      0.044168     -0.046294
Ti	     10.12646      6.26208      4.14599        -0.004550     -0.093186      0.095318
O	      2.03844      2.18367      1.98104         0.014158      0.050984     -0.050780
O	      4.04812      4.19056      2.05591         0.076409      0.000761     -0.002135
O	      6.10106      6.22578      2.10182         0.019660     -0.051268      0.048012
O	      8.13337      8.27936      2.12931         0.016647     -0.069884      0.072942
O	      4.09815      1.94104      4.30379         0.024900     -0.069002      0.066435
O	      6.07890      4.26731      4.06017        -0.022787      0.077757     -0.074854
O	      8.06732      6.25425      4.15336        -0.010734      0.019010     -0.012057
O	     10.24014      8.37747      4.11281         0.009894     -0.020759      0.022520
O	      6.12988      2.02008      6.30764        -0.074627     -0.000603      0.000696
O	      8.13967      4.02718      6.38270        -0.016043     -0.051704      0.049632
O	     10.17460      6.35307      6.13712        -0.015239      0.065949     -0.069532
O	     12.20745      8.40819      6.16462        -0.028788      0.050340     -0.045400
