# total energy = -175.16489492 eV
 
CRYSTAL
PRIMVEC
-0.010857 4.135217 4.181669 
6.203551 0.006471 6.249502 
8.285907 6.211952 6.241338 
PRIMCOORD
24 1
Li	      8.25817     10.24267     10.42953        -0.011789     -0.033444      0.010424
Li	     10.35289     10.26435     12.48678         0.000966     -0.025574     -0.010272
Li	     12.42239      6.22307     10.42363        -0.018148     -0.000221      0.006315
Li	      8.31795      4.20588      8.32593         0.015946      0.018918      0.000651
Li	      2.03739      2.13534      4.21475        -0.009057      0.021666      0.010499
Li	     12.38652      8.28315     12.49065        -0.004978     -0.016645     -0.001819
Li	      6.20673      4.22328      6.25619         0.014595     -0.002478     -0.006042
Ti	      8.23267      6.24028     10.45813        -0.008901      0.053024     -0.017124
Ti	     10.29553      6.20772     12.48851         0.022048     -0.017998     -0.043232
Ti	      6.23141      6.15943      8.37588         0.087771     -0.127349      0.004456
Ti	      6.25337      2.15961      8.26768         0.069996      0.057253     -0.021580
Ti	      4.16297      4.13323      4.16677        -0.112417      0.109502      0.023126
O	      8.27605      2.10976      8.33575         0.004590      0.008459     -0.019906
O	     10.34000      8.19999     12.59429         0.017971     -0.062616      0.092742
O	      4.16420      2.10586      4.11560         0.081292      0.077127     -0.013625
O	      6.21184      8.22728      8.34475        -0.068358     -0.071957      0.006492
O	      6.17835      2.05612      6.23171         0.019328      0.021231     -0.001233
O	      8.29121      8.18892     10.30235        -0.014771     -0.096757     -0.050853
O	      8.37738      4.25831     10.42816         0.104357      0.026463     -0.004377
O	     10.34892      6.15516     10.45828        -0.033740     -0.086370      0.059050
O	      4.11170      4.22309      6.15252         0.001734      0.061439     -0.079621
O	      6.09922      6.19628      6.39403        -0.056161      0.023126      0.065927
O	      6.21461      4.12824      8.35677        -0.013351      0.033778     -0.017852
O	      8.26515      6.29211      8.34186        -0.088924      0.029424      0.007855
