# total energy = -175.02915334 eV
 
CRYSTAL
PRIMVEC
-0.010794 4.138371 4.160004 
12.515920 2.098301 14.499015 
8.348972 2.074903 6.212866 
PRIMCOORD
24 1
Li	      4.18582      4.07535      8.23696         0.005599     -0.028514     -0.002694
Li	     18.77393      6.22945     20.77949         0.019410      0.009599      0.000021
Li	      8.30724      4.10014      8.26213        -0.003391     -0.012472     -0.025150
Li	     10.43517      4.04543     10.35306         0.010839      0.031258      0.006672
Li	      4.19633      2.13463      6.25627         0.022944     -0.008582      0.002295
Li	      6.20693      2.25112      8.27373        -0.024110      0.009314     -0.017189
Li	      8.35834      2.08795     10.35897        -0.008911     -0.005936      0.014038
Ti	     12.56846      2.20430     14.45935         0.057502      0.422159     -0.013399
Ti	      2.10066      4.19586      6.28367         0.051328      0.052588      0.042378
Ti	     14.55628      6.15431     16.61925        -0.064595     -0.066817     -0.007045
Ti	     16.62458      6.18691     18.68536        -0.019393     -0.159583      0.036265
Ti	     10.47064      2.07741     12.35345        -0.009098     -0.071657     -0.059186
O	     14.58409      4.16703     16.59952         0.001599      0.011744      0.004807
O	     16.81158      4.27134     18.62838         0.037433      0.175787      0.005068
O	      6.33174      1.99287      6.15286         0.040071     -0.031159     -0.031892
O	      8.37533      2.00796      8.25571         0.009986     -0.055346     -0.045709
O	     10.44386      6.22547     14.51195        -0.020671     -0.003826      0.008933
O	     12.48565      6.23178     16.55213        -0.020768     -0.024523      0.061143
O	     14.60654      6.20817     18.69712        -0.016633     -0.004968      0.003237
O	      4.08021      4.13173      6.19264        -0.060856      0.031126     -0.107481
O	      6.24607      4.24543      8.37245         0.021264      0.093695      0.060769
O	      8.27801      4.21729     10.41348        -0.013570      0.040074      0.057645
O	     10.33826      4.16771     12.43068        -0.025175     -0.030866      0.003036
O	     12.54010      4.03801     14.48702         0.009196     -0.373094      0.003439
