# total energy = -90.37753967 eV
 
CRYSTAL
PRIMVEC
-4.176159 0.000019 0.000007 
-0.000006 0.000054 4.069800 
0.000003 8.348208 0.000059 
PRIMCOORD
16 1
Li	     -4.17359      4.23054      4.06896        -0.001070     -0.015794      0.000079
Li	     -4.17294      2.21909      2.03394         0.001202      0.021748      0.000060
Li	     -2.08601      4.23354      2.03410         0.000281     -0.024465      0.000205
Li	     -4.17342      6.13366      2.03441         0.002208      0.003977     -0.000522
Mn	     -4.17285      8.31608      4.06915        -0.000657      0.039326      0.000196
Mn	     -2.08488      2.20180      4.06893        -0.000352      0.083971      0.000828
Ni	     -2.08507      6.10771      4.06928        -0.002218     -0.009169     -0.000627
Ni	     -2.08470      8.30063      2.03427        -0.000985      0.007119     -0.000120
O	     -2.08487      2.01781      2.03402        -0.000487      0.039662      0.000605
O	     -4.17360      4.17829      2.03409         0.002234      0.005970      0.000602
O	     -2.08500      6.30970      2.03438        -0.000908     -0.091262     -0.001236
O	     -4.17290      1.92681      4.06895        -0.001233      0.035056     -0.000010
O	     -2.08543      4.06374      4.06901         0.000164     -0.158101      0.000686
O	     -4.17278      8.34780      2.03426         0.003295     -0.000969      0.000052
O	     -4.17311      6.41813      4.06931        -0.000346      0.020103     -0.000645
O	     -2.08474      0.11234      4.06912        -0.001128      0.042827     -0.000154
