# total energy = -175.08814606 eV
 
CRYSTAL
PRIMVEC
-0.049948 4.163428 4.205257 
4.154680 0.000016 4.155211 
6.215679 8.259871 2.094018 
PRIMCOORD
24 1
Li	      4.16862      0.14124      4.14594         0.000520     -0.005479     -0.001273
Li	      2.01929      6.21461      4.21351        -0.006479      0.026344      0.008399
Li	      8.22344      8.21749      8.31686         0.003395     -0.010040     -0.005472
Li	      2.08706      0.14206      2.06639         0.002840     -0.007109     -0.003746
Li	      4.09483      6.21253      6.29483         0.004673      0.009472     -0.005731
Li	      6.22627      8.21796      6.31945         0.003658     -0.010297     -0.005792
Li	      8.28381     10.19914      6.25921        -0.004847     -0.023174      0.003410
Ti	      6.11619     10.25794      4.27096         0.014709     -0.078673     -0.008149
Ti	      2.05668      4.07644      2.14490        -0.049298     -0.053897      0.032815
Ti	      8.33563      6.34756      6.20687        -0.025674      0.370410      0.026258
Ti	      4.08683      4.07721      4.17600        -0.029648     -0.056293      0.052641
Ti	      6.26420      6.30035      4.12339         0.038095      0.097918     -0.037645
O	      1.97798      2.15334      2.08943        -0.029092      0.153037      0.002554
O	      4.07685      4.16230      2.15603        -0.071450     -0.006870      0.066944
O	      6.18424     10.31609      6.29672        -0.054234      0.010337     -0.010503
O	      4.14358      2.15371      4.25548        -0.008480      0.150036      0.022163
O	      6.15774      4.21738      4.23002        -0.022304     -0.066504      0.021201
O	      8.24580     10.31630      8.35891         0.011138      0.010807      0.053227
O	      2.11609      4.19943      4.11622         0.110726     -0.034515     -0.113722
O	      4.19746      6.13917      4.13970         0.027967     -0.008048     -0.029905
O	      6.19687      8.27357      4.19059         0.012745     -0.026379     -0.005983
O	      4.15931      4.08655      6.22806         0.033679     -0.042188     -0.029185
O	      6.24752      6.13937      6.18998         0.033274     -0.011263     -0.024779
O	      8.29195      8.16928      6.25104         0.004089     -0.387633     -0.007725
