# total energy = -174.77508833 eV
 
CRYSTAL
PRIMVEC
-0.000448 2.092574 2.091996 
24.135889 -0.271280 25.370069 
4.022489 2.092010 2.091675 
PRIMCOORD
24 1
Li	     24.13579     -0.26484     25.37004        -0.000123      0.029220     -0.032703
Li	      4.02169     -0.03182      4.21884         0.001661      0.010372     -0.011583
Li	      8.04418     -0.07175      8.43954         0.002059     -0.010624      0.013318
Li	     10.05592      0.06808     10.39213         0.001397     -0.013505      0.020281
Li	     20.11263      3.83463     21.26579         0.000404     -0.017809      0.016578
Li	     22.12749      1.85982     21.15250        -0.001302     -0.007596      0.005543
Li	     26.15039      1.82573     25.37021        -0.002540     -0.001417      0.000998
Ti	      2.01047     -0.01421      2.10986         0.001010      0.119910     -0.121396
Ti	      6.03288     -0.04156      6.31875         0.000911     -0.108811      0.112842
Ti	     12.06774     -0.09795     12.65805        -0.003099     -0.015910      0.012299
Ti	     18.10142      3.99360     19.00627         0.003957     -0.006803      0.007202
Ti	     24.15650      3.93247     25.35524         0.035527     -0.011852      0.012570
O	      2.01106      1.96971      2.21784         0.001133     -0.121242      0.123103
O	      4.02216      2.05496      4.22456        -0.001225     -0.025183      0.026076
O	      6.03289      2.05880      6.31168        -0.000497      0.016585     -0.017167
O	      8.04371      2.05825      8.40299         0.005336      0.038549     -0.032963
O	     10.05539      2.12954     10.42461        -0.003126      0.117787     -0.126436
O	     12.06750      1.88467     12.75847        -0.002227      0.004549     -0.005067
O	     14.07873      1.94396     14.78264        -0.001768     -0.066930      0.075150
O	     16.09042      1.95190     16.88099         0.001476      0.079426     -0.082076
O	     18.10202      2.01566     18.90145        -0.004632      0.026066     -0.029733
O	     20.11328      1.76513     21.24686        -0.005789     -0.075897      0.069714
O	     22.11737      1.85307     23.25055        -0.031019     -0.014489      0.015773
O	     24.13517      1.95448     25.24117         0.002474      0.055603     -0.052323
