# total energy = -175.16438897 eV
 
CRYSTAL
PRIMVEC
0.168222 24.296591 25.158583 
2.167166 8.098894 10.496789 
2.167154 12.148298 10.496758 
PRIMCOORD
24 1
Li	      4.29853     20.24699     20.95863        -0.008138     -0.001275     -0.007786
Li	      2.28024     16.19693     14.77796         0.020418     -0.000986      0.016622
Li	      4.36042     26.32107     27.28292        -0.006117      0.000182     -0.001315
Li	      2.24656     18.22206     20.89701         0.021445     -0.000101      0.012044
Li	      2.36587     28.34539     27.35890         0.033050      0.000161      0.030326
Li	      2.29512     26.32108     29.35005        -0.004666     -0.000395     -0.007878
Li	      4.40555     42.51841     44.06479         0.012694      0.002668      0.021718
Ti	      2.18911     10.12331     12.57549         0.117199     -0.002038     -0.017933
Ti	      2.24524     20.24485     18.90441        -0.067844     -0.003884     -0.066415
Ti	      4.39030     32.39539     33.54528         0.003293     -0.014468      0.001162
Ti	      4.41262     34.41990     35.67843        -0.017401     -0.002479      0.114831
Ti	      2.30395     28.35861     31.45845        -0.106952      0.024556     -0.104723
O	      2.16875     26.32067     27.16000        -0.099410      0.000680     -0.100249
O	      2.40345     28.34451     29.46056         0.039988      0.002202      0.111061
O	      2.31910     30.36454     31.47408         0.001785     -0.019582     -0.002103
O	      2.31128     32.39390     33.53279         0.005958      0.000542     -0.053930
O	      2.42653     34.41969     35.74777         0.115067     -0.001273      0.108414
O	      2.13145     12.14779     12.58933        -0.009377      0.000967      0.010365
O	      2.05629     14.17258     14.55226        -0.141233     -0.001876     -0.134241
O	      2.30407     16.19630     16.89639         0.112652     -0.000192      0.035399
O	      2.25078     18.22119     18.91000        -0.004999      0.000874     -0.003532
O	      2.21182     20.24525     20.96940        -0.061222      0.004474      0.006628
O	      2.22379     22.27089     23.04894         0.032324      0.011822      0.038068
O	      2.25965     24.29608     25.12354         0.011484     -0.000578     -0.006532
