# total energy = -193.07945858 eV
 
CRYSTAL
PRIMVEC
0.028431 26.827196 27.218196 
2.065029 2.062171 4.191024 
2.074422 8.263206 6.274670 
PRIMCOORD
26 1
Li	      4.02587     12.43200     12.61911         0.030096      0.005925      0.008929
Li	      4.11348     14.43639     14.65611         0.015428     -0.001001     -0.004717
Li	      2.12670     14.39885     12.59895        -0.003868      0.000468      0.028505
Li	      2.12243     12.39240     14.59938         0.006560     -0.006886      0.028953
Li	      2.03756     18.68021     20.97704         0.003093      0.006114     -0.014665
Li	      2.12009     20.62936     22.93693        -0.004718     -0.007443     -0.016085
Li	      0.06050     20.57626     20.91316        -0.014868     -0.010827     -0.020537
Ti	      2.08264     28.94677     31.36344        -0.025484      0.020885     -0.087739
Ti	      0.03123      8.29144      8.39574         0.027808     -0.001943     -0.018663
Ti	      2.08077     20.60129     18.83125        -0.071126      0.039895      0.010465
Ti	      4.09400     24.76844     25.14490        -0.049341     -0.057212      0.008535
Ti	      0.06889     22.65214     22.98116         0.040249      0.001931      0.000895
Ti	      2.13884     33.02513     31.44691         0.071994      0.005750     -0.025639
O	      2.10364     28.88207     29.30432        -0.015894      0.002178      0.050598
O	      2.11800     30.98598     31.37741        -0.016167     -0.033824      0.023590
O	      2.10500      6.22854      6.28053         0.010895      0.021820     -0.018381
O	      2.08125      8.28094      8.32267        -0.047588      0.005557      0.006963
O	      2.16856     10.31957     10.59471         0.076180      0.005210      0.069724
O	      2.02399     12.33444     12.60341        -0.061868     -0.101480     -0.016246
O	      2.05432     14.48389     14.72272         0.002167      0.030162      0.019461
O	      2.07797     16.45709     16.72395         0.011857      0.012726     -0.016444
O	      2.09532     18.56231     18.84599         0.071936      0.052446      0.033121
O	      2.06362     20.73539     20.84428         0.019302      0.052130     -0.056520
O	      2.10354     22.68688     23.01176         0.023132     -0.006843     -0.029581
O	      2.05796     24.78993     25.08036        -0.038384     -0.016685      0.015836
O	      2.03319     26.77357     27.24123        -0.061391     -0.019053      0.019643
