# total energy = -192.90278317 eV
 
CRYSTAL
PRIMVEC
-0.333027 26.724723 27.271957 
2.072160 -0.000036 2.072312 
1.883796 20.573683 18.838477 
PRIMCOORD
26 1
Li	      3.78097     24.70074     25.22879        -0.014338      0.005226      0.014253
Li	      1.78221     26.70977     25.15302        -0.006154      0.003062      0.007369
Li	      1.99117      8.25544     10.43999         0.005803     -0.006496     -0.006184
Li	     -0.00600     10.26166     10.36461         0.013445     -0.006342     -0.014858
Li	      1.51126     39.05059     37.85798         0.010592      0.001685     -0.009816
Li	      3.69719     41.12998     41.88803         0.001502     -0.000313      0.000234
Li	      1.92813     22.63640     25.00888        -0.003279      0.001996      0.002688
Ti	      1.88938     20.54300     18.83170        -0.000408     -0.080635     -0.001034
Ti	      2.02691      2.17464      4.18703        -0.051331      0.117692      0.048601
Ti	      1.74755     32.78509     31.40645         0.049182     -0.104365     -0.049397
Ti	      1.88422     14.42194     16.76181         0.013100      0.058896     -0.008631
Ti	      1.87886     16.51359     18.84015        -0.040163      0.069637      0.041230
Ti	      1.56227     45.17554     44.02509         0.023435     -0.048557     -0.026177
O	      1.68158     28.74998     29.39867        -0.027121     -0.033929      0.028269
O	      1.72036     30.84310     31.43296        -0.000527      0.005808      0.000136
O	      1.76050     32.93861     33.46581         0.018499      0.032849     -0.018558
O	      1.72495     34.97083     35.57174         0.019339      0.009442     -0.019142
O	      1.74606     37.00558     37.62317         0.036316     -0.016280     -0.035896
O	      1.85937     12.32492     12.64297        -0.064080      0.002579      0.063246
O	      1.86708     14.30929     14.70712        -0.009467     -0.018890      0.009340
O	      1.93984     16.39923     16.70690        -0.004855     -0.074755      0.008982
O	      1.83281     18.56550     18.88767         0.026858      0.071163     -0.030461
O	      1.90620     20.65255     20.88695         0.010561      0.034994     -0.010318
O	      1.91540     22.63692     22.94979         0.052789     -0.002304     -0.051549
O	      1.69483     24.68359     25.24219        -0.034300      0.008783      0.034287
O	      1.71647     26.72081     27.29321        -0.025397     -0.030945      0.023387
