# total energy = -193.27932946 eV
 
CRYSTAL
PRIMVEC
-0.008975 27.566720 26.808395 
2.019250 4.246732 6.180070 
2.013282 23.318849 20.628070 
PRIMCOORD
26 1
Li	      2.01019     31.86089     32.88039        -0.000635      0.008152      0.022835
Li	     -0.00035      2.12149      2.06319         0.000237      0.000569      0.003787
Li	      2.01248     27.51518     24.86265         0.002600     -0.012054     -0.017712
Li	      2.01052     33.79463     30.98274         0.000176     -0.033605     -0.005368
Li	      2.01036     36.03064     32.99177        -0.001232      0.010803     -0.005865
Li	      2.00733     42.41641     39.20200        -0.001189     -0.009246     -0.004978
Li	      2.01240     25.58123     26.76103         0.000939      0.033682      0.008469
Ti	      2.01750     10.62828     12.34755        -0.001566     -0.128958      0.009527
Ti	      2.01215     31.77561     28.87554        -0.005206      0.072894      0.089455
Ti	      2.00822     38.16290     35.07351         0.001601     -0.096824      0.039970
Ti	      2.01478     21.20972     22.67016         0.002915      0.138502     -0.041743
Ti	      2.01119     27.60099     28.86849         0.000310     -0.091384     -0.087616
Ti	      2.00499     48.74734     45.39675         0.003223      0.127410     -0.001122
O	      2.01115     29.68704     28.87222         0.003972      0.012306      0.001722
O	      2.01201     31.70520     30.85328        -0.004119     -0.037845     -0.045454
O	      2.01022     33.95729     32.99240         0.000973     -0.007857     -0.028012
O	      2.00996     36.04904     35.02933         0.001965     -0.023007      0.027387
O	      2.00996     38.18442     37.11964        -0.007301     -0.008584     -0.019701
O	      2.00833     40.29074     39.14954         0.002896     -0.036964      0.023398
O	      2.01650     14.79758     14.46057        -0.003631      0.048739     -0.047468
O	      2.01612     17.01184     16.47547        -0.003141     -0.061618      0.045478
O	      2.01526     19.08448     18.59437        -0.005781      0.034043     -0.018808
O	      2.01314     21.19156     20.62433         0.006840     -0.010772      0.019886
O	      2.01276     23.32538     22.71509         0.004797      0.023686     -0.028774
O	      2.01295     25.41794     24.75236        -0.001754      0.009447      0.020781
O	      2.01125     27.67056     26.89116         0.002109      0.038483      0.039925
