# total energy = -193.04044402 eV
 
CRYSTAL
PRIMVEC
0.000209 2.087049 2.087079 
26.514119 -0.078090 27.212814 
6.136363 2.098870 4.162942 
PRIMCOORD
26 1
Li	      2.14540      2.05093      4.20795        -0.027162     -0.011876      0.012558
Li	     10.10443      2.11102      8.32127         0.031710     -0.004013      0.006466
Li	     10.30737      2.02824     12.57954        -0.031640      0.003978     -0.001543
Li	     18.26612      2.09057     16.69476         0.026781      0.010758     -0.011194
Li	     24.50798      4.05446     25.16905         0.004125     -0.011760      0.006437
Li	     26.53078      2.03711     25.09771         0.002116      0.001602     -0.002334
Li	     22.41777      0.00885     22.95063        -0.002935      0.010526     -0.009904
Ti	      0.07904      2.04801      2.12357         0.127049      0.010625     -0.004353
Ti	     12.18009      2.11222     10.40745        -0.075331      0.025659     -0.019787
Ti	      8.23204      2.02771     10.49455         0.072100     -0.024963      0.023691
Ti	     20.33227      2.09281     18.78014        -0.119550     -0.007412      0.001023
Ti	     16.40411      2.01995     18.85353         0.075502     -0.035062      0.044041
Ti	     30.52231      2.04296     29.26431        -0.082485      0.042183     -0.054703
O	     28.56505      1.98547     29.32146         0.035811      0.002124     -0.001583
O	      4.14571      2.12557      4.13363         0.026280      0.007364     -0.020992
O	      6.12949      2.07456      6.27119        -0.002497      0.013813     -0.013533
O	      8.11441      2.02131      8.41270        -0.010715     -0.014502      0.018694
O	     10.20647      2.06997     10.45095        -0.008847     -0.000369      0.000592
O	     12.29690      2.11897     12.48898         0.018550      0.011745     -0.013301
O	     14.28185      2.06579     14.63182         0.005117     -0.011344      0.009704
O	     16.26588      2.01546     16.77044        -0.027066     -0.010140      0.022352
O	     18.36039      2.07811     18.79481        -0.031754     -0.005735      0.004795
O	     20.44709      2.12012     20.83986         0.009719      0.053548     -0.064981
O	     22.43669      2.12364     22.92398         0.037866      0.064093     -0.075341
O	     24.48963      1.93961     25.19366        -0.039396     -0.065662      0.075266
O	     26.47927      1.94327     27.27654        -0.013349     -0.055179      0.067929
