# total energy = -229.03403654 eV
 
CRYSTAL
PRIMVEC
0.085497 10.423631 10.506284 
6.266092 2.111735 8.429253 
4.161014 2.096863 2.123252 
PRIMCOORD
30 1
Li	      2.08051     10.53179     12.57582        -0.001523     -0.004465      0.012722
Li	      6.32368      4.18580     10.46693         0.003720      0.005463      0.007464
Li	      8.29770      4.25946      8.51053         0.012938      0.003467      0.024447
Li	      8.39341      6.22894     10.64758         0.006714      0.020667      0.005661
Li	      4.20053      8.34469      8.42711        -0.001545     -0.010284      0.002174
Li	      8.32613      8.34679     12.57339        -0.000326     -0.014455      0.006085
Li	      6.40839     10.34208     12.67693         0.002400     -0.008161     -0.013147
Ti	      6.38824     12.53685     18.87536        -0.025684     -0.004156      0.032520
Ti	      4.30708     10.45062     14.75176         0.025594      0.040555     -0.051769
Ti	      6.21809      4.17670      6.35756        -0.045982     -0.040604     -0.002155
Ti	      4.15332      6.24173      6.32765        -0.032374      0.039608     -0.086831
Ti	      2.15760      4.25046      6.35877         0.056115      0.015629      0.036889
Ti	      2.19014      6.25821      8.32248        -0.022856     -0.030731      0.017109
Ti	      6.28058     10.49712     16.82287        -0.040190      0.043055      0.032006
Ti	      8.36098     10.40187     14.79595         0.018036     -0.065608     -0.064153
O	      2.20538      2.10148      2.21053         0.078063      0.013119      0.046864
O	      4.12002      2.05742      4.17280        -0.032666     -0.049166     -0.008046
O	      6.31140     12.53741     16.75286         0.033240     -0.015543      0.051290
O	      2.09180      4.12913      4.27708        -0.062444     -0.022303      0.042638
O	      4.20175      4.17252      6.32603         0.029174      0.043799      0.012042
O	      6.29004      4.21366      8.40523        -0.000086     -0.010081     -0.031462
O	      8.29492      8.39073     14.63931         0.056635      0.007604      0.059143
O	      4.22872      6.27623      8.39626        -0.032665     -0.022904     -0.055446
O	      6.29274      6.29561     10.55141         0.022021      0.040645     -0.029495
O	      2.16736      8.35015      8.47679        -0.017246      0.016584     -0.046491
O	      4.28389      8.42796     10.56658         0.035044      0.038250      0.032005
O	      6.25550      8.31927     12.56711        -0.035702     -0.019409     -0.022985
O	      8.40678     12.56072     18.95684        -0.009825      0.000283     -0.055443
O	      4.25565     10.42179     12.63932         0.000346     -0.022637     -0.008720
O	      6.33106     10.44928     14.73539        -0.018925      0.011780      0.055085
