# total energy = -229.14712439 eV
 
CRYSTAL
PRIMVEC
0.062479 6.215456 6.177056 
10.524709 2.140033 12.389673 
4.211812 2.102832 2.069543 
PRIMCOORD
30 1
Li	      6.39146      8.28760     10.37511        -0.010984      0.011046     -0.021225
Li	      8.41722      8.33504     12.41145        -0.007478      0.001244     -0.006441
Li	      8.46166      6.31857     14.39778        -0.003547      0.000936     -0.003229
Li	      6.37265      4.06546      6.21603         0.004246     -0.042238     -0.003258
Li	      6.43163      2.13094      8.17638         0.010203      0.008185      0.020917
Li	     10.57656      6.31441     16.51481         0.018997     -0.006734      0.004747
Li	     10.43424      6.32182     12.39062        -0.016675     -0.003107      0.003990
Ti	      4.16824      2.08180      2.05735        -0.030216      0.019082      0.016331
Ti	     10.56464      8.35076     14.44447         0.013969     -0.007731     -0.011705
Ti	     10.59019      4.24331     14.47802         0.060318      0.051184      0.055588
Ti	      4.16827      2.15533      6.18985        -0.062781      0.011162      0.008212
Ti	     12.60939      4.21325     12.41106        -0.055975     -0.001627      0.014744
Ti	      2.18188      4.16112      6.16827        -0.001899      0.021434      0.019714
Ti	      4.26579      4.19016      8.21231         0.047027     -0.009840     -0.054695
Ti	     12.69362      6.26445     14.46971        -0.008859     -0.034288     -0.004390
O	      2.11802      1.99421      2.14416        -0.005897      0.006365     -0.028820
O	      4.19654      2.12772      4.11722         0.005480      0.018267     -0.002692
O	      6.20668      2.00041      6.21060        -0.048729     -0.082581     -0.012566
O	      8.50623      8.36339     14.44066         0.075318      0.032621      0.048241
O	     10.54861      8.34472     16.50323        -0.060810     -0.002220      0.003446
O	     12.70478      6.32343     16.50789         0.045427      0.005824      0.009018
O	      4.32457      4.27920      6.18390         0.009321     -0.014549     -0.047653
O	      6.34310      4.19603      8.25336         0.002675      0.009730     -0.011387
O	      8.42316      4.18996     10.33447         0.010713      0.011814     -0.002177
O	     10.54019      4.24484     12.35148         0.023020     -0.026626      0.025160
O	     12.64272      8.38867     18.57278        -0.012731      0.009624     -0.004459
O	      4.28238      6.24317      8.25408        -0.000034     -0.008699     -0.007500
O	      6.39474      6.24586     10.31806         0.027038      0.006292      0.009512
O	      8.41882      6.25486     12.35415        -0.041536     -0.004419     -0.031532
O	     10.59668      6.31155     14.43818         0.014400      0.019849      0.014107
