# total energy = -92.38745226 eV
 
CRYSTAL
PRIMVEC
-0.000033 2.062271 2.062413 
8.296633 -0.009062 0.008917 
-0.009076 4.220313 -4.220573 
PRIMCOORD
16 1
Li	      4.21948      6.20970     -2.08591        -0.006042      0.003359     -0.003572
Li	      6.14313      2.14959     -0.08818         0.004704     -0.004756      0.004232
Li	      8.15153      2.11547     -2.11389         0.009205     -0.008476      0.007171
Li	      2.21072      4.18169     -2.12299        -0.010661      0.008309     -0.007390
Mn	      8.25328      6.26793     -2.14518        -0.031189      0.012840     -0.010247
Mn	      2.10854      2.09054     -0.02949         0.030187     -0.011151      0.012417
Ni	      4.18834      4.19977     -0.07646        -0.031071     -0.036220      0.036336
Ni	      6.17360      4.15878     -2.09791         0.030686      0.036549     -0.036644
O	      6.23147      4.19142     -0.06808         0.093324     -0.103820      0.104168
O	      0.07518      4.33651     -2.27605         0.051999      0.023291     -0.023429
O	      6.40263      6.25562     -2.13275         0.097535      0.092707     -0.093926
O	      0.09068      1.97202      0.08889         0.023174     -0.024203      0.023342
O	      1.99006      4.03106      0.09250        -0.053734     -0.023335      0.024304
O	      4.13057      4.16727     -2.10623        -0.090913      0.103656     -0.103765
O	      1.98347      2.17521      1.94820        -0.021818      0.024054     -0.025139
O	      3.95919      2.10281     -0.04186        -0.095386     -0.092802      0.092141
