# total energy = -229.07979505 eV
 
CRYSTAL
PRIMVEC
0.069441 10.312447 10.408725 
6.352260 2.000129 8.429989 
6.348254 8.211203 10.488424 
PRIMCOORD
30 1
Li	      8.60186     18.50808     23.19916         0.004599      0.003952     -0.040239
Li	      8.47381     10.25325     14.68614         0.000143     -0.000758      0.000772
Li	      2.06609      4.09958      6.09310        -0.004185     -0.003363      0.042241
Li	      6.54546      8.24990     14.63501         0.010660     -0.000384     -0.001973
Li	     10.54336     14.30188     21.04781         0.002374      0.010642     -0.024796
Li	      6.47751     10.30527     16.67534        -0.004512     -0.007812      0.022846
Li	     10.47545     16.35848     23.08889        -0.010721     -0.000071     -0.004096
Ti	      6.34605      2.02328      8.44489        -0.053984      0.073119     -0.026778
Ti	     10.62790     18.39761     25.16539        -0.086134     -0.122058     -0.037844
Ti	     12.68518     12.18691     20.89857         0.012740     -0.062702     -0.028550
Ti	      4.26613      2.10890      6.41551        -0.014824      0.056156      0.032776
Ti	      6.39297      6.21043     12.55690         0.077934      0.121292      0.041756
Ti	     10.60475     12.27229     18.86864         0.058443     -0.077118      0.033615
Ti	      8.42633     14.31761     18.85710        -0.095061     -0.060532     -0.044249
Ti	      2.24222      8.29044     10.43615         0.099506      0.053388      0.037485
O	      8.47287     14.42303     20.90542        -0.028221      0.014926     -0.036866
O	      4.37126     12.27326     14.68994         0.042337     -0.022549      0.000328
O	      6.37833     12.32987     16.72030        -0.004277      0.016901     -0.024577
O	      8.36876      6.11788     12.54047        -0.096341     -0.009380     -0.041684
O	      4.26960     14.40338     16.68662         0.009963      0.031426     -0.005075
O	      6.37834     14.47224     18.71588         0.028898      0.011084      0.019952
O	      8.58223      8.17753     14.77356         0.099263      0.008578      0.045476
O	      4.20334      6.20164      8.39988        -0.015686      0.009412     -0.053180
O	      6.39551      6.09358     10.48389         0.016465     -0.008618      0.052345
O	      8.54797     10.18465     16.81748         0.027488     -0.013052      0.038079
O	      4.29027      8.13555     10.57754        -0.034570     -0.009835     -0.028482
O	      6.39875      8.20449     12.60601        -0.009347     -0.032340      0.003561
O	      8.51039     12.30371     18.86143        -0.003867      0.007029     -0.000017
O	      4.28969     10.27775     12.57217         0.007751     -0.015108      0.024976
O	      6.29684     10.33392     14.60266        -0.036833      0.027772      0.002196
