# total energy = -228.84269637 eV
 
CRYSTAL
PRIMVEC
-0.218426 10.649322 10.542686 
6.161555 2.109313 8.323625 
3.992894 8.462786 8.403339 
PRIMCOORD
30 1
Li	     10.12311     10.59793     16.75035        -0.001714      0.020413     -0.003830
Li	      1.70759     10.72101     12.52796         0.024876      0.000780      0.011968
Li	      6.15496     10.50745     12.66879        -0.022066      0.001032     -0.008460
Li	      4.12270      2.09458      6.22941         0.002650     -0.020237      0.001190
Li	     -0.05391      6.38255      6.39235        -0.012198     -0.008336     -0.006185
Li	      1.93683      6.38541      8.39620        -0.000934     -0.001440      0.003417
Li	      7.91832     14.84833     18.80397         0.011674      0.005077      0.003432
Ti	      7.81213     18.98841     23.06664        -0.054045     -0.015498      0.022492
Ti	      6.21593      4.35395     10.45515         0.037796      0.008141     -0.032375
Ti	      6.07743      6.37762     12.48969        -0.016384      0.020403     -0.063325
Ti	      1.95513      4.27844      6.21129        -0.004284      0.013444     -0.105613
Ti	      8.01483     12.67558     16.76626         0.024234      0.031704      0.022683
Ti	      6.01142     10.66505     16.75457        -0.012694     -0.033404     -0.014044
Ti	      5.91127     16.95197     18.98786        -0.000578     -0.008364      0.099653
Ti	      7.94656     16.95818     21.02987         0.023679     -0.001999      0.064158
O	      7.98672     14.87152     20.94440        -0.039330      0.019948      0.005262
O	      3.93184     12.65406     14.66773         0.053539     -0.023083     -0.028739
O	      5.98731     12.72588     16.73301         0.032183     -0.046226     -0.025049
O	      1.85636     14.77085     14.75337        -0.018683      0.019666      0.028029
O	      3.81246     14.90759     16.87328        -0.046796      0.023973      0.068864
O	      5.88255     14.89520     18.92823        -0.067303      0.051604      0.043046
O	      8.14451      8.44582     14.59232         0.063969     -0.046910     -0.040692
O	      4.05309      6.32297      8.32475         0.047553     -0.023136     -0.080193
O	      6.00569      6.46197     10.44382         0.028503     -0.028701     -0.025473
O	      1.87936      8.50686      8.46485        -0.045143      0.042795      0.021793
O	      3.93293      8.57632     10.52900        -0.050136      0.020091      0.037068
O	      6.04044      8.46487     12.57706         0.045743     -0.016272     -0.004187
O	      8.10056     12.70217     18.78638         0.022875     -0.019061     -0.073579
O	      3.93290     10.61450     12.59855        -0.000502     -0.003668      0.006400
O	      5.92625     10.63719     14.73407        -0.026482      0.017264      0.072290
