# total energy = -228.96958061 eV
 
CRYSTAL
PRIMVEC
0.100041 6.232554 6.230587 
10.522793 0.068766 10.480218 
4.208550 2.109886 2.110371 
PRIMCOORD
30 1
Li	      4.21029      2.05400      2.16841        -0.000950     -0.000464     -0.000643
Li	      8.52015      8.36909     12.53535        -0.000077      0.004981      0.005600
Li	      8.41942      0.10789      8.33266         0.004125      0.012676     -0.004123
Li	      2.25201      2.01799      4.21070         0.037005     -0.016627     -0.004340
Li	      6.46214      2.15282      8.29522         0.038689     -0.006904     -0.021550
Li	      6.26971      6.24339      8.43520        -0.038462      0.005594      0.009393
Li	     10.47704      6.37619     12.51502        -0.027641      0.010819      0.011342
Ti	      2.20683      6.30450      8.26740        -0.002821      0.072454     -0.038776
Ti	     10.63040      8.31992     14.68707        -0.032351     -0.058660      0.063215
Ti	     10.50881      2.18823     12.54811        -0.007231     -0.002527     -0.010671
Ti	      8.38249      4.24739      8.40938        -0.019048     -0.033621      0.017654
Ti	     12.60535      4.23056     12.62054        -0.052635     -0.026183     -0.035631
Ti	     10.65217      4.23514     14.59233         0.051732      0.038771     -0.014042
Ti	      4.34439      4.15298      8.31914         0.033493     -0.006068     -0.019583
Ti	     12.74552      6.27714     14.65790         0.001339     -0.015261      0.024519
O	     12.61421      2.16209     12.57151         0.010689     -0.042645      0.007679
O	      4.26622      2.11656      4.22532         0.008506      0.004929      0.027701
O	      6.24718      2.05429      6.22250        -0.011375     -0.019298     -0.026411
O	      8.47913      2.17300      8.39410         0.008614      0.029236     -0.000599
O	     10.50878      2.14456     10.48059         0.008141      0.006504     -0.031916
O	      2.16042      4.09097      4.25690        -0.009475     -0.007153      0.013025
O	      4.26459      4.20078      6.25128        -0.008305      0.002048      0.002522
O	      6.36689      4.19758      8.36413         0.010274      0.007346     -0.003082
O	      8.46936      4.19591     10.47583         0.000503      0.000614     -0.003526
O	     10.57325      4.30413     12.47347         0.015691      0.009939     -0.005496
O	     12.74773      6.31996     16.72733        -0.017079     -0.010034      0.035140
O	      4.25586      6.22668      8.33591         0.000002     -0.022143      0.014782
O	      6.48300      6.33942     10.50431        -0.000860      0.019296      0.011587
O	      8.46640      6.28082     12.50380         0.007872      0.009083     -0.020970
O	     10.63952      6.30398     14.63671        -0.008366      0.033298     -0.002799
