# total energy = -228.87422484 eV
 
CRYSTAL
PRIMVEC
0.001874 10.593042 10.342589 
6.212781 6.392919 12.374790 
4.142889 10.593724 10.342691 
PRIMCOORD
30 1
Li	      2.07437     10.67364     12.46430        -0.001309     -0.008120     -0.024316
Li	      4.14459     12.71700     12.43769        -0.000850      0.008126     -0.013250
Li	      8.28616     23.26167     26.79979         0.000458      0.008610      0.027308
Li	      6.21439     10.62578     16.48334        -0.000362     -0.011038      0.015423
Li	      6.21467     16.98906     18.76788         0.000162     -0.011664     -0.007780
Li	      4.14244      6.35161     10.15534         0.001211      0.010487      0.007371
Li	      4.14449     19.06677     18.61739         0.000767      0.000598     -0.004152
Ti	      4.14493     10.56465     10.36968        -0.004422      0.083290     -0.100909
Ti	      8.28800     21.18641     24.79779        -0.008991     -0.102079      0.070821
Ti	      2.07309     12.74892     14.46699         0.003723      0.097125     -0.074465
Ti	      2.07179      4.22615      6.16602        -0.001752      0.156569     -0.081982
Ti	      8.28498     14.81299     18.64402         0.000165     -0.047757      0.096729
Ti	      6.21305     12.77541     18.55215         0.003678     -0.087921      0.098447
Ti	      2.07257      8.52825     10.27990         0.000448      0.036035     -0.104015
Ti	      8.28652     19.11501     22.75538         0.000431     -0.155754      0.082055
O	      2.07368     12.70366     12.44408         0.001851      0.053053     -0.048018
O	      4.14391     12.72139     14.46475         0.000906     -0.065913     -0.018075
O	      6.21368     12.73834     16.51211         0.002678      0.044543      0.029957
O	      8.28653     21.23118     26.82076         0.001607     -0.047481      0.042607
O	      4.14429     14.81402     16.50921        -0.004474     -0.007137     -0.015717
O	      6.21459     14.88414     18.63847        -0.002609     -0.038378     -0.042011
O	      8.28362     12.73026     18.54189         0.004368     -0.016531      0.063783
O	      4.14348     16.81608     18.49552         0.003086     -0.040486     -0.105847
O	      6.21553     17.11632     20.76912         0.000051      0.048295      0.108267
O	      2.07237      8.47363      8.27385        -0.000175      0.000151     -0.002740
O	      4.14310      8.45536     10.28335         0.001430      0.044700      0.046624
O	      6.21569     19.11879     22.75540         0.007395      0.018137      0.023514
O	      2.07427     10.61091     10.37934        -0.003873      0.015549     -0.057018
O	      4.14522     10.60288     12.41023        -0.006969     -0.047204     -0.033089
O	      6.21475     10.62092     14.45686         0.001370      0.062196      0.020480
