# total energy = -228.81861878 eV
 
CRYSTAL
PRIMVEC
-0.019004 6.317019 6.122882 
10.316933 2.076692 12.243254 
10.317042 2.075811 8.162225 
PRIMCOORD
30 1
Li	     12.36265      8.38444     16.32579         0.003296      0.003135      0.000890
Li	      6.10708      6.38004     12.24512         0.012423     -0.013319     -0.002137
Li	     10.33776      4.14591     10.20322        -0.019998      0.011026     -0.001187
Li	     14.43459      4.12554     14.28333         0.010823      0.011535      0.001542
Li	     18.63624      4.07485     18.36471        -0.003796      0.006776      0.003846
Li	     10.31248      6.32811     16.32670        -0.025294     -0.015190     -0.002331
Li	      4.09083      4.23079      8.16455         0.015249     -0.004689     -0.001636
Ti	     10.33233      2.10330     12.24348         0.027561     -0.138043      0.000532
Ti	     14.41340      8.35220     18.36692        -0.027437      0.130295     -0.002206
Ti	     18.54555      8.30216     22.44801         0.056846      0.091556     -0.002559
Ti	      2.04899      2.12265      4.08065         0.054854     -0.099381     -0.006354
Ti	      6.19979      2.15673      8.16166        -0.070170     -0.132921      0.005314
Ti	     12.37900      6.25517     14.28608        -0.050039      0.100343      0.006634
Ti	     16.49557      6.27195     18.36653         0.120737     -0.047019      0.010838
Ti	     18.56274      6.25092     20.40583        -0.095601      0.114366      0.000959
O	     12.37630      4.17828     14.28346         0.004022      0.102865     -0.002881
O	     14.44400      4.13395     16.32382        -0.008531      0.032752      0.005139
O	      6.20136      2.10810      6.12142        -0.002646      0.033868      0.001237
O	      8.26445      2.05332      8.16301        -0.064040      0.080380     -0.006078
O	     10.33271      2.08375     10.20325        -0.018958     -0.027754     -0.002010
O	     12.36885      6.27639     16.32656        -0.007150     -0.105630      0.003391
O	     14.40648      6.27617     18.36736        -0.009749      0.058481     -0.004574
O	      6.12301      4.25830      8.16459        -0.021802     -0.116711     -0.014254
O	      8.30342      4.12081     10.20313         0.015873      0.112627      0.000904
O	     10.33786      4.17767     12.24355         0.014951     -0.065922      0.000015
O	     12.36301      8.38592     18.36609        -0.001415      0.000920      0.003940
O	     14.41243      8.37096     20.40704         0.011231      0.025812     -0.001086
O	      6.16374      6.32325     10.20398         0.068678     -0.087568      0.003258
O	      8.22667      6.26788     12.24507         0.001912     -0.037191     -0.000410
O	     10.30059      6.32022     14.28548         0.008171     -0.025397      0.001265
