# total energy = -228.96454872 eV
 
CRYSTAL
PRIMVEC
-0.029668 10.540200 10.364364 
2.072541 2.111856 4.135964 
6.214693 8.388306 2.099198 
PRIMCOORD
30 1
Li	      2.13668      2.23533      4.06962        -0.014161      0.000679      0.009986
Li	      1.98018     12.51782     10.44126         0.016097     -0.005039     -0.016209
Li	      1.98502      4.15481      2.20235        -0.004286     -0.003520      0.003114
Li	      2.09784      6.35905      8.20078        -0.017325      0.003463      0.013156
Li	      2.01808      8.38688      6.30960         0.018352      0.001184     -0.019662
Li	      6.20140     12.62307     10.37187        -0.002863      0.003536      0.008927
Li	      2.13134     10.59448     12.30735         0.002710      0.001207     -0.004343
Ti	      6.16842     16.87049     14.53556         0.009441      0.048726      0.043853
Ti	      6.25483     10.42547      4.22307         0.028501     -0.032088     -0.008133
Ti	      4.16222      6.26805      2.07161        -0.013496     -0.076579     -0.010480
Ti	      2.12367      6.30354      4.11221         0.006543     -0.051351     -0.020799
Ti	      4.16079      8.42392      4.17250         0.028664      0.023875      0.051711
Ti	      8.20668     16.83248     12.49721         0.004340      0.052044      0.029966
Ti	      4.07521     12.70892     12.38862        -0.025698      0.061486     -0.013102
Ti	      6.17205     14.71413     12.43678        -0.054759     -0.042857     -0.040073
O	      2.04340     12.64459     12.43718         0.001747     -0.005937      0.007467
O	      4.05459     14.74644     12.52255         0.006489     -0.029482     -0.010356
O	      6.18610     16.83270     12.40372         0.030180     -0.014814      0.000121
O	      2.05265      4.32435      4.23456         0.006558      0.064738      0.056168
O	      4.14468      6.30393      4.20602        -0.036259      0.025888     -0.019759
O	      6.27683      8.38907      4.08584         0.006064      0.042617     -0.001023
O	      2.00097      6.25275      6.17718         0.001231      0.008560     -0.021401
O	      4.13572      8.41883      6.21662         0.021073      0.010830      0.023011
O	      6.22140     10.48387      6.25605         0.004592     -0.025491     -0.022413
O	      2.11534      8.49612      8.33308        -0.009838     -0.016207      0.016713
O	      4.11195     10.50069      8.28320        -0.001213     -0.015063      0.003933
O	      6.21890     12.63613      8.32639         0.008278      0.013282     -0.004562
O	      2.06350     10.42451     10.27566        -0.008414     -0.066029     -0.053509
O	      4.10957     12.65326     10.35366        -0.002787      0.033107      0.027289
O	      6.19419     14.71768     10.39326        -0.009760     -0.010763     -0.029590
