# total energy = -227.86853116 eV
 
CRYSTAL
PRIMVEC
-0.000027 2.098902 2.098892 
31.015869 -0.235936 31.719081 
24.812906 1.941681 23.244749 
PRIMCOORD
30 1
Li	      4.13531     -0.03062      4.22907         0.008007     -0.010627      0.008843
Li	     30.98929      1.87337     29.61018         0.014477      0.017166     -0.014822
Li	      8.29914      2.05573     10.53790        -0.016265     -0.013970      0.011088
Li	     10.33939      2.02244     12.67033         0.010722      0.006320     -0.004543
Li	     18.58220     -0.11802     19.00939         0.014854     -0.017070      0.016136
Li	     22.74791      1.92691     25.35855        -0.007040     -0.000280      0.001014
Li	     51.72127      3.81808     52.85159        -0.008775      0.013953     -0.014169
Ti	     24.89909      3.98179     25.40234         0.048852     -0.061853      0.059027
Ti	      2.13380      2.08463      4.21197        -0.028820     -0.014838      0.014181
Ti	     37.18163      1.84854     35.93223        -0.001484     -0.006667      0.004037
Ti	     14.38006     -0.04643     14.73967        -0.053755      0.069243     -0.066765
Ti	     16.54310     -0.11224     16.90613         0.000920     -0.065910      0.062355
Ti	     45.39575      1.72268     44.45353        -0.052698     -0.061402      0.064629
Ti	     24.89789      1.96963     27.41384         0.060444      0.064780     -0.060388
Ti	     53.76281      3.80828     54.95827        -0.001900      0.084029     -0.077857
O	     33.13321      1.83577     33.84428         0.012155     -0.016704      0.018107
O	     35.14946      1.84739     35.93250        -0.017574      0.006627     -0.005106
O	     37.16457      1.86426     38.01584         0.004569      0.006443     -0.008481
O	     39.30170      1.91059     40.06802         0.044666      0.006931     -0.008096
O	     41.35469      1.95335     42.12436        -0.001930      0.063016     -0.063289
O	     12.35134      1.98945     12.70360         0.001743      0.001152     -0.000936
O	     14.56248      2.00563     14.78640         0.001179     -0.000713     -0.000265
O	     16.54154      1.99342     16.89887        -0.005837     -0.036264      0.032059
O	     18.59452      2.06308     18.92550        -0.036561      0.005377     -0.005251
O	     20.69262      1.86507     21.22368         0.040741     -0.011290      0.010347
O	     22.74441      1.93979     23.24586         0.000733      0.026933     -0.028745
O	     24.73859      1.92621     25.35883         0.005361      0.003143     -0.002691
O	     26.92876      1.93804     27.44591         0.009863      0.026946     -0.027529
O	     28.94904      1.74315     29.73955        -0.009309     -0.072726      0.074596
O	     31.00132      1.79020     31.79172        -0.037337     -0.011743      0.012511
