# total energy = -228.67212567 eV
 
CRYSTAL
PRIMVEC
0.000629 2.082390 2.082900 
10.297708 -0.033093 10.450638 
10.348154 6.305860 4.110272 
PRIMCOORD
30 1
Li	      0.10614      2.06472      2.10129        -0.004676      0.012818     -0.012827
Li	     14.54931      6.15851     12.59105         0.005339      0.008764     -0.009077
Li	      1.95982      0.09997      1.98466        -0.007752     -0.011363      0.007757
Li	     16.40271      4.19304     12.47371         0.004004     -0.017990      0.016231
Li	      6.32367      4.13613      6.27817         0.004424     -0.006645      0.009828
Li	      8.25442      2.08804      6.24708         0.001635      0.000829     -0.001766
Li	     10.18447      2.12042      8.29815        -0.003589      0.009474     -0.011393
Ti	     12.27436      2.13100     10.36923        -0.098961      0.034285     -0.052447
Ti	      4.23454      4.12685      4.20629         0.102692     -0.034346      0.050843
Ti	     14.41967      6.27367      8.30106        -0.005714      0.034728      0.009407
Ti	      8.19340      4.24846      4.08306        -0.059434     -0.000487      0.005799
Ti	     16.49966      6.28937     10.37711        -0.008753      0.012479     -0.016157
Ti	     10.35843      6.27318      8.30923         0.005561     -0.010468      0.018398
Ti	     18.66324      8.31418     14.60258         0.060754      0.002631     -0.003126
Ti	     12.43780      6.28965     10.38496         0.006858     -0.036180     -0.006465
O	      2.13977      2.15708      2.00895         0.007823     -0.005079     -0.026333
O	     14.36958      4.10073     12.56685        -0.011601     -0.000162      0.022470
O	     16.58360      6.29157     12.45517        -0.007119      0.036112     -0.028016
O	      4.11453      2.06852      4.17911         0.014576      0.008104     -0.030614
O	      6.18349      4.19077      4.14108        -0.035574      0.000426     -0.004892
O	     18.57722      6.26470     14.56822         0.001689      0.000926      0.001505
O	      6.17461      2.04535      6.28950        -0.009328     -0.043578      0.026947
O	      8.31289      4.23957      6.17414         0.015531      0.018970     -0.032319
O	     10.27310      6.27091      6.23154         0.011470     -0.031062      0.025241
O	      8.19688      2.01788      8.40118        -0.022798     -0.020816      0.030729
O	     10.33475      4.21170      8.28656         0.007030      0.040767     -0.028899
O	     12.36126      6.34804      8.24090         0.007074      0.003021     -0.010713
O	     10.32544      2.06628     10.43413         0.041026     -0.000717      0.009635
O	     12.39507      4.18909     10.39640        -0.013347     -0.007234      0.037388
O	     14.49645      6.21501     10.44565        -0.008840      0.001794      0.002868
