# total energy = -93.44065988 eV
 
CRYSTAL
PRIMVEC
2.052427 4.117482 2.052473 
2.097646 -4.162534 2.097650 
4.154620 -0.000026 -4.154686 
PRIMCOORD
16 1
Li	      6.19720     -0.01836     -2.04876        -0.005866     -0.004333      0.007178
Li	      4.16874      2.03614      2.03079         0.015532      0.002259     -0.011661
Li	      4.17371     -0.01989     -0.02297         0.007224     -0.004323     -0.009625
Li	      4.14340     -2.07866     -2.04164        -0.008948     -0.002712      0.003834
Mn	      8.29296     -0.04512      0.00493         0.005045      0.011044     -0.018188
Mn	      4.17410     -2.10340      2.07056        -0.019531      0.006960      0.005632
Ni	      6.24140     -0.04491      2.05675        -0.024549      0.001795      0.021953
Ni	      6.22603     -2.10332      0.01928         0.021961      0.000890     -0.024936
O	      6.37591     -0.02126      0.00073         0.048578      0.092513     -0.099687
O	      3.99309      2.03609     -0.02248        -0.044350     -0.095240      0.103997
O	      4.14723     -0.02274     -2.22871         0.101318     -0.094739     -0.042593
O	      4.15388     -0.16143      2.18377        -0.084540     -0.031328      0.040755
O	      4.16967     -2.08002      0.15335        -0.099983      0.093895      0.050654
O	      2.06049      2.17599      1.94770         0.085186      0.027858     -0.032739
O	      1.96325      0.11757     -0.00682        -0.036193      0.028080      0.088208
O	      2.19871     -2.22068      2.08664         0.039117     -0.032620     -0.082782
