# total energy = -187.40305800 eV
 
CRYSTAL
PRIMVEC
0.234273 26.503662 27.316962 
2.169511 6.103392 8.436090 
2.180978 12.238714 10.518247 
PRIMCOORD
26 1
Li	      0.12786      4.09470      4.26429         0.027821     -0.001849     -0.003719
Li	      4.37420     24.44347     25.26365         0.013166     -0.011825      0.001136
Li	      4.34506     26.50941     27.33757        -0.002178      0.009652      0.000284
Li	      4.25852     28.51984     29.40472        -0.018455      0.005393     -0.010783
Li	      0.32708     16.32363     16.86583         0.022181     -0.003610      0.010682
Li	      0.24151     18.33515     18.93405         0.004386     -0.008687      0.000541
Li	      0.21083     20.40061     21.00963        -0.010397      0.011000     -0.002607
Li	      4.45915     40.75034     42.00735        -0.028968      0.000298      0.005259
Ti	      0.23553     26.50287     27.31660        -0.005526     -0.000150      0.005481
Ti	      0.15006      2.08389      2.04543         0.349504      0.025610      0.012246
Ti	      2.22514     24.37438     23.11997        -0.117862     -0.111569     -0.080202
Ti	      2.36176     20.47026     23.15133         0.124916      0.114776      0.068795
Ti	      4.43772     42.76088     44.22592        -0.376277     -0.031022     -0.011721
O	      2.22498     28.53046     29.41000        -0.316080      0.012480      0.002996
O	      2.48198     30.57939     31.65344         0.175055     -0.027403      0.033351
O	      2.47064     32.58610     33.70780         0.045097     -0.038524      0.026127
O	      2.35274     34.63420     35.75679         0.016806      0.008035      0.051355
O	      2.23470     10.21014     10.51458        -0.015401     -0.005279     -0.052127
O	      2.11651     12.25841     12.56340        -0.047568      0.039964     -0.030462
O	      2.10469     14.26520     14.61772        -0.169873      0.026637     -0.033649
O	      2.36147     16.31376     16.86126         0.334625     -0.011721     -0.001450
O	      2.35440     18.34861     19.06987         0.063137     -0.023625      0.121681
O	      2.33994     20.32170     21.13498         0.017625     -0.029031      0.073815
O	      2.29344     22.42201     23.13561        -0.001300      0.005475     -0.000163
O	      2.24723     24.52297     25.13607        -0.022553      0.023910     -0.072169
O	      2.23240     26.49595     27.20071        -0.061880      0.021066     -0.114697
