# total energy = -187.35298161 eV
 
CRYSTAL
PRIMVEC
0.148150 26.389151 27.896815 
2.084554 2.035073 4.298064 
2.113147 12.168888 10.751437 
PRIMCOORD
26 1
Li	      0.09923      2.03597      2.14276        -0.003171     -0.005098     -0.003025
Li	      2.09844      6.13607      8.45281         0.001240      0.012516     -0.005334
Li	      2.17854     20.24389     19.34201        -0.002869     -0.021154     -0.011908
Li	      2.14765     12.15404     14.89905         0.013975      0.016877     -0.027403
Li	      2.19679     28.44284     28.04940        -0.013150     -0.016746      0.026705
Li	      2.16634     20.35376     23.60534         0.003314      0.017174      0.009647
Li	      2.24634     34.46107     34.49376        -0.002347     -0.011487      0.004708
Li	      4.24504     38.56126     40.80351         0.005795      0.006569      0.003556
Ti	      2.23212     28.42623     32.19510         0.000126      0.000108     -0.012099
Ti	      2.06369      8.18979     10.70930        -0.020236      0.081472     -0.000491
Ti	      2.16862     14.22376     17.09353         0.022727     -0.093534     -0.030344
Ti	      2.17680     26.37365     25.85275        -0.040283      0.095139      0.032627
Ti	      2.28094     32.40753     32.23703         0.021532     -0.082132      0.006104
O	      2.28621     28.40534     30.18385         0.089074      0.000981      0.045742
O	      2.25145     30.45645     32.17770         0.007380      0.047827      0.023987
O	      2.14983     32.49917     34.19379        -0.025754     -0.010245     -0.079766
O	      2.19477      8.09799      8.75275         0.024236      0.010948      0.078058
O	      2.09328     10.14069     10.76865        -0.009728     -0.046048     -0.022771
O	      2.05825     12.19180     12.76195        -0.080707     -0.001969     -0.035365
O	      2.16214     14.20804     15.06815         0.000859      0.015986      0.056638
O	      2.11452     16.22111     17.30080        -0.012444     -0.036173      0.001577
O	      2.18824     18.17193     19.14316         0.002505     -0.099359     -0.052046
O	      2.17232     20.29850     21.47346        -0.000457      0.001431     -0.001985
O	      2.15619     22.42538     23.80333         0.000710      0.099613      0.049400
O	      2.23006     24.37610     25.64570         0.016270      0.034709     -0.003679
O	      2.18245     26.38920     27.87790         0.001402     -0.017406     -0.052535
