# total energy = -186.87438382 eV
 
CRYSTAL
PRIMVEC
0.000148 2.084240 2.083767 
26.650540 -0.233229 27.323933 
12.304426 2.016719 10.487168 
PRIMCOORD
26 1
Li	     16.35639      1.91762     14.75307        -0.011050     -0.019799      0.022272
Li	     20.46321      1.88902     18.95039         0.022953     -0.018917      0.016815
Li	     22.51572      1.85602     21.06530         0.016755     -0.016166      0.016889
Li	     24.53917      1.86972     23.13323        -0.010289     -0.003284      0.007125
Li	     14.41591      1.99589     16.76305         0.007215      0.002968     -0.008656
Li	     16.43832      2.00989     18.82965        -0.016367      0.013337     -0.014856
Li	     18.49073      1.97923     20.94562        -0.023820      0.013385     -0.016890
Li	     22.59798      1.94742     25.14104         0.010698      0.023299     -0.023379
Ti	     12.30357      4.09942     12.57055         0.007724     -0.004097      0.003976
Ti	      2.21278      2.02503      4.22614         0.234143     -0.065525      0.065748
Ti	     18.37419      1.96095     16.79367        -0.317412     -0.081787      0.084239
Ti	     20.57950      1.90486     23.10051         0.319214      0.082952     -0.082820
Ti	     36.74080      1.83962     35.66843        -0.220408      0.076187     -0.074428
O	     28.66229      1.77501     29.48292        -0.067146     -0.017345      0.015776
O	     30.72662      1.83079     31.51070        -0.205747     -0.004114      0.002144
O	      6.15146      2.04954      6.28519         0.001322     -0.002113      0.000621
O	      8.22778      2.03496      8.38326         0.193941      0.001239      0.000706
O	     10.29166      2.08962     10.41175         0.061824      0.018138     -0.016495
O	     12.34844      2.07734     12.50760         0.010686      0.055842     -0.054524
O	     14.34211      2.05884     14.61142         0.008269      0.076338     -0.073887
O	     16.53253      1.96708     16.78783         0.371626     -0.000477      0.003660
O	     18.48655      2.04991     18.78918        -0.011069      0.078477     -0.083994
O	     20.46742      1.81606     21.10541         0.012844     -0.078057      0.081596
O	     22.42135      1.89823     23.10695        -0.374848      0.001507     -0.004624
O	     24.61276      1.80633     25.28281        -0.011276     -0.081178      0.079397
O	     26.60561      1.78672     27.38689        -0.009782     -0.050809      0.053586
