# total energy = -205.06904155 eV
 
CRYSTAL
PRIMVEC
-0.092717 14.687068 14.364612 
4.123172 10.474505 14.354265 
4.149991 8.379612 8.194851 
PRIMCOORD
28 1
Li	      4.03645     10.53610     14.28216        -0.015779      0.014261     -0.012654
Li	      4.20222     14.73147     18.50636        -0.007322     -0.000838      0.016936
Li	      1.93524     18.95405     20.51507         0.004994      0.015885      0.025989
Li	      4.25370     16.79656     20.51275         0.026770     -0.013573      0.001100
Li	      1.96732      6.41506      8.18876         0.007588      0.035391     -0.006593
Li	      4.16484     16.64519     16.36753        -0.007168     -0.014069     -0.024410
Li	      6.09814     16.63016     18.45107         0.000237     -0.011474     -0.003724
Li	      6.13993     18.75521     20.60446        -0.013701     -0.018849     -0.013228
Ti	      2.01822     14.65821     16.37885         0.066369      0.021046     -0.057605
Ti	      4.04060     12.62793     16.34004        -0.073235      0.021993     -0.117069
Ti	      2.06987     16.86195     18.48353         0.048522      0.142754      0.033622
Ti	      4.12816     20.98686     24.56389         0.063112     -0.018651     -0.060655
Ti	      3.93136     20.92401     20.59965        -0.303583     -0.108540      0.165859
Ti	      6.18422     20.83611     22.55575         0.018359     -0.313523      0.053769
O	      1.91816     16.71073     16.47615         0.028067     -0.039037      0.044563
O	      4.01812     16.87030     18.45803        -0.138105      0.080260      0.002945
O	      2.06878     18.77850     18.45107         0.041449     -0.178502      0.024436
O	      4.11345     19.00045     20.42369        -0.031993      0.140380     -0.033449
O	      2.17560      6.28972      6.16237         0.300307      0.000580     -0.004901
O	      4.06071     21.01126     22.54387        -0.027320      0.007563     -0.069663
O	      6.14883     18.98274     22.57057         0.007254      0.280146     -0.017867
O	      4.06781     23.08277     24.64639         0.016461     -0.025431      0.014158
O	      2.05272     10.47648     10.29776         0.041796      0.069597     -0.018074
O	      4.25832     10.36679     12.24204         0.048626     -0.041530      0.001842
O	      6.12755     23.11412     26.62909        -0.010947      0.028361     -0.035700
O	      4.07735     12.57366     14.38215        -0.019702     -0.005291      0.087565
O	      1.99343     14.61114     14.36976         0.003020      0.020612      0.003115
O	      4.04557     14.60666     16.41159        -0.074074     -0.089522     -0.000306
