# total energy = -204.91137956 eV
 
CRYSTAL
PRIMVEC
0.000340 2.081779 2.081786 
14.319172 -0.213759 14.788573 
8.182303 4.164249 4.164248 
PRIMCOORD
28 1
Li	      8.18273      4.08497      4.24508         0.000464     -0.010455      0.010399
Li	      2.04853      2.12925      4.11378        -0.000186      0.004385     -0.002611
Li	      4.09381      4.06155      4.26719         0.002729      0.000868      0.000690
Li	      6.13713      2.15687      4.09090        -0.004366     -0.008322      0.006722
Li	      8.18180     -0.12115      8.44988        -0.001487      0.001478     -0.002377
Li	     10.22900      3.98007     10.59346        -0.000820     -0.018945      0.017551
Li	     12.27414      4.04126     12.61434         0.006474      0.004543     -0.003835
Li	     14.31975      2.02639     12.55163         0.000066      0.021095     -0.023215
Ti	     16.26190      1.87423     14.78294        -0.038822     -0.025537      0.034465
Ti	     12.17158      4.12410      8.36526        -0.059981      0.034996     -0.026830
Ti	      6.13799      1.98662      8.41682        -0.012376     -0.031496      0.035668
Ti	      8.28689      4.12774      8.36512         0.056017      0.044532     -0.052358
Ti	     10.22658     -0.14770     10.56034         0.010235      0.008013     -0.011128
Ti	     12.38103      1.87771     14.78303         0.037771     -0.026734      0.017784
O	     16.37274      1.96716     16.77310        -0.049510      0.033067     -0.044127
O	     18.41233      4.01744     16.80564        -0.001544      0.014656     -0.019366
O	      4.09747      1.95656      4.28645        -0.041028     -0.048111      0.048609
O	     20.45040      4.04547     18.86000         0.041961      0.044971     -0.041957
O	      6.13763      1.98800      6.33464        -0.006577     -0.032270      0.038501
O	      8.17905      4.03672      6.37245         0.039777     -0.050668      0.054181
O	      8.16944      2.04841      8.36401        -0.016507      0.019296     -0.026954
O	     10.22917      4.09603      8.39471         0.002969     -0.002032     -0.001002
O	     10.22834      1.85104     10.64316        -0.007582     -0.030955      0.029163
O	     12.28727      4.12702     10.44503         0.029236      0.033283     -0.025547
O	     12.25941      1.87414     12.70514        -0.022014     -0.017516      0.008633
O	     14.31895      4.15174     12.50240         0.008700      0.042764     -0.038605
O	     14.31883      1.90546     14.75344         0.008323      0.001597     -0.002396
O	     16.37861      3.95384     14.78416         0.018077     -0.006503      0.019944
