# total energy = -205.27195503 eV
 
CRYSTAL
PRIMVEC
0.005262 4.161315 4.165622 
14.619706 2.127469 16.633850 
8.352824 4.174935 8.328103 
PRIMCOORD
28 1
Li	     14.59818      2.27186     16.66870        -0.002922      0.008801     -0.004168
Li	     14.56266      8.44692     18.77215         0.007338     -0.009574      0.015676
Li	      8.47607      4.13263     12.48098         0.016138      0.014581      0.008059
Li	     10.45799      4.28954     14.55865        -0.007834      0.011338      0.001935
Li	     12.48861      4.19618     16.58405        -0.002137      0.004503      0.000153
Li	      2.15723      2.10385      4.20800         0.001138     -0.005287     -0.011298
Li	     12.47633      6.21759     14.57114        -0.002414     -0.023382     -0.012280
Li	     10.46676      2.02590     12.40546         0.006040     -0.026419     -0.003759
Ti	      2.08423      4.16086      6.12173        -0.048770     -0.003026     -0.089724
Ti	      4.11146      4.32071      8.30231        -0.110527      0.400035      0.080602
Ti	      8.37722      6.22289     10.50164         0.034948     -0.012545     -0.017347
Ti	     14.63540      6.21966     16.72665        -0.005560     -0.161219      0.026301
Ti	     16.65438      6.24780     18.71107        -0.009600     -0.018234      0.003119
Ti	     12.56546      2.09842     14.49259         0.078236      0.025875     -0.028523
O	     16.72678      4.22493     18.69201         0.008985     -0.009350     -0.009128
O	      4.22112      6.13665      8.33051        -0.029968     -0.393025     -0.010949
O	      6.30622      6.27124     10.49064        -0.037494      0.053610      0.012849
O	      8.36834      6.25833     12.49536        -0.069082     -0.006418     -0.010889
O	     10.34880      6.36923     14.54092        -0.023808      0.071922     -0.002834
O	     12.55465      6.28746     16.67676         0.031003      0.034302      0.057214
O	     14.58111      6.29585     18.81702        -0.008255      0.051430     -0.022825
O	     16.71353      6.30606     20.81073         0.013464     -0.002045      0.077838
O	      4.17650      4.12449      6.28832        -0.006747      0.006087      0.061960
O	      6.18189      4.08163      8.26222        -0.040735     -0.044150     -0.022715
O	      8.38392      4.16350     10.40665         0.056552     -0.052423      0.015964
O	     10.55352      4.21018     12.32235         0.155785      0.003673     -0.032873
O	     12.51611      4.07795     14.43574        -0.006094     -0.076474     -0.091237
O	     14.58551      4.28577     16.78230         0.002320      0.157415      0.008878
