# total energy = -205.02083035 eV
 
CRYSTAL
PRIMVEC
-0.000743 4.128703 4.072241 
14.673014 2.078168 16.272118 
6.287389 2.064773 4.070621 
PRIMCOORD
28 1
Li	      8.39132      6.08620     10.17112         0.004319     -0.010915      0.004212
Li	      6.34577      4.16080     10.18212         0.006172     -0.000767      0.016058
Li	      8.38455      4.13301     12.20173        -0.001864      0.004117      0.003687
Li	     16.73679      6.15827     18.31224         0.007621     -0.009282      0.012627
Li	     14.71670      4.21702     18.33544         0.009308      0.003069     -0.016217
Li	      2.10713      2.10405      3.95290        -0.001931      0.013439      0.000248
Li	     10.41510      4.16332     10.18516        -0.009453     -0.002954      0.005282
Li	     18.82910      4.11479     18.31785        -0.009938     -0.000896     -0.013436
Ti	      6.31141      6.16461      8.20854         0.032549     -0.052427     -0.010856
Ti	     10.43191      6.20764     12.20123        -0.035896     -0.015285     -0.047172
Ti	     18.87272      6.19347     20.38351        -0.005485      0.007715      0.039099
Ti	      6.34232      2.07300      8.13096         0.014782      0.006959     -0.027260
Ti	      8.37175      2.17547     10.10918         0.000230      0.306313      0.026793
Ti	     16.74255      4.13671     16.35328        -0.002829      0.055129      0.357736
O	     16.75842      4.16442     18.18002        -0.017707      0.006264     -0.348552
O	      4.21279      2.05504      4.07695         0.034107     -0.015587      0.000566
O	      6.30081      2.05461      6.10151         0.002788     -0.012991     -0.068067
O	      8.38904      2.03541      8.08060         0.007454      0.011335      0.052082
O	     10.44644      2.06869     10.14800        -0.003513      0.004235     -0.029060
O	     12.53508      6.21857     16.27832        -0.016159     -0.025675     -0.000405
O	     14.67238      6.31409     18.47050        -0.002567      0.015060      0.086089
O	     16.79313      6.22377     20.34372        -0.021247      0.011371      0.012449
O	      4.19285      4.13485      6.08499         0.018667      0.000817     -0.019703
O	      6.24674      4.09916      8.13998         0.001580      0.016650     -0.010656
O	      8.37509      4.00815     10.16653        -0.005989     -0.315782     -0.021272
O	     10.53961      4.16842     12.19173        -0.011795      0.001178      0.009419
O	     12.58171      4.13235     14.25761         0.008942      0.004742     -0.005369
O	     14.66783      4.14927     16.30903        -0.002150     -0.005831     -0.008321
