# total energy = -205.46213709 eV
 
CRYSTAL
PRIMVEC
-0.047953 14.245218 14.468687 
4.172774 6.114568 10.311568 
4.213787 4.090993 4.099316 
PRIMCOORD
28 1
Li	      4.14566     18.26087     18.50921        -0.019027      0.030764     -0.019563
Li	      6.32737     18.25497     20.61005         0.007614      0.023314     -0.013678
Li	      4.08834     12.30842     16.52708        -0.007772     -0.020511      0.016819
Li	      2.09482      6.18897      8.31612         0.022884     -0.031155      0.020758
Li	      4.19769     14.25894     18.53518         0.023278      0.003461     -0.011332
Li	      2.05172      8.16605     10.21994         0.008309      0.017723     -0.036177
Li	      4.19106     16.28327     16.60638        -0.010320     -0.019162      0.032193
Li	      6.21715     16.30561     18.60097        -0.021733     -0.009648      0.013444
Ti	      4.19677      8.10191     12.32248         0.023553     -0.059060     -0.062659
Ti	      6.24495     20.24780     22.61335         0.006114     -0.115489     -0.051912
Ti	      4.17053     10.31608     14.52479        -0.014548      0.109855      0.035908
Ti	      6.26696      8.21555     10.34599        -0.022236      0.070561      0.074801
Ti	      4.13181     16.31344     20.64376         0.052948     -0.027897     -0.012379
Ti	      6.28364     14.25013     16.49314        -0.046231      0.028357      0.016140
O	      2.09202     16.27608     16.53085        -0.012224     -0.021420      0.015305
O	      4.04774     16.28372     18.67207        -0.050042     -0.016248      0.067120
O	      2.03207      4.01609      4.16827        -0.024761     -0.018198     -0.013331
O	      4.13351     18.32994     20.60799        -0.008885     -0.017973      0.010385
O	      2.10986      6.11898      6.21818         0.004910      0.015079     -0.015004
O	      4.25828      6.18765      8.18927         0.029448      0.017904      0.008066
O	      6.36726     14.28021     18.46463         0.055064      0.016583     -0.063224
O	      4.15085      8.17260     10.29528         0.008954      0.024264     -0.015911
O	      1.96874     10.17750     10.41470        -0.059054     -0.011119      0.054549
O	      4.13902     10.16515     12.44291        -0.069328     -0.020834      0.030845
O	      6.23499     18.33705     22.67720         0.012642      0.090442      0.007844
O	      4.18047     12.22643     14.45965        -0.010630     -0.086408     -0.002445
O	      6.27673     20.39820     24.69466         0.065439      0.018738     -0.030573
O	      4.27439     14.27117     16.41074         0.055632      0.008075     -0.055989
