# total energy = -90.65366852 eV
 
CRYSTAL
PRIMVEC
-4.202415 -0.000039 -0.000005 
0.000006 0.000005 3.938497 
0.000080 8.341200 -0.000022 
PRIMCOORD
16 1
Li	     -2.10073      8.30363      1.97072         0.000057      0.023888      0.000309
Li	     -4.20208      2.12080      1.97084         0.000269     -0.026086      0.000246
Li	     -2.10082      4.20049      1.97068         0.000044     -0.042465      0.000740
Li	     -4.20200      6.22377      1.97070        -0.000055      0.042061      0.000701
Mn	     -4.20198      8.30442      0.00145        -0.000225      0.104630     -0.000793
Mn	     -2.10088      2.11990      0.00151         0.000104     -0.105767     -0.000521
Ni	     -4.20208      4.21011      0.00152        -0.000228     -0.037939     -0.000875
Ni	     -2.10079      6.21416      0.00145        -0.000271      0.037361     -0.001209
O	     -2.10084      2.08511      1.97077         0.000585     -0.027858      0.001286
O	     -4.20211      4.19708      1.97084         0.000624     -0.108203     -0.000447
O	     -2.10075      6.22719      1.97075        -0.000858      0.108569     -0.000685
O	     -4.20207      1.98372      0.00159        -0.000266     -0.042269     -0.000851
O	     -2.10088      4.06173      0.00150        -0.000195     -0.027111     -0.000988
O	     -4.20198      8.33903      1.97071         0.001243      0.028989      0.004062
O	     -4.20197      6.36254      0.00150        -0.000496      0.028953     -0.000626
O	     -2.10086      0.09937      0.00149        -0.000333      0.043247     -0.000348
