# total energy = -203.92060867 eV
 
CRYSTAL
PRIMVEC
-0.064380 14.109526 14.710093 
4.203479 2.014971 6.286233 
4.202713 6.046221 6.286266 
PRIMCOORD
28 1
Li	      4.27864     16.12520     20.78363         0.047721     -0.000104      0.003960
Li	      2.42361      2.01569      4.20330        -0.020238      0.000401      0.001169
Li	      4.18643      6.04702     10.47606        -0.008265      0.000298     -0.003286
Li	      2.07311      6.04734      8.35561        -0.004511     -0.000656      0.014947
Li	      4.19139     16.12480     17.13491         0.007360     -0.001301     -0.029540
Li	      5.99694     16.12457     18.90527         0.020504      0.001048      0.011736
Li	      0.03708     12.09404     12.63575         0.034212     -0.000345      0.012953
Li	      6.12793     18.13998     20.89241        -0.006674      0.000004     -0.001916
Ti	      6.25425     20.15506     23.12576         0.004632     -0.004079     -0.024433
Ti	      4.15528      8.06317      8.46389         0.027159     -0.000685     -0.022492
Ti	      2.20333      4.03157      6.14240         0.202168     -0.001993     -0.142555
Ti	      8.24014     14.10833     18.76601        -0.223921      0.004826     -0.069839
Ti	      4.16041     14.10943     14.77021        -0.104532     -0.000911      0.028251
Ti	      2.01673      8.06390     10.41920        -0.028342      0.002102      0.035994
O	      1.98182     16.12455     16.85380         0.019202      0.004235     -0.007065
O	      4.19077     16.12483     18.96068        -0.013242      0.000508      0.010266
O	      2.07068      4.03170      4.24115         0.020205     -0.000181      0.109376
O	      4.08991      4.03127      6.43459        -0.173868      0.000332      0.046182
O	      6.17437      8.06213     12.56073        -0.019886      0.001660     -0.002862
O	      4.21976      6.04689      8.45158        -0.013760      0.000190      0.011464
O	      6.26490     10.07798     14.59483         0.003262     -0.002028     -0.016395
O	      4.10753      8.06260     10.49895        -0.055850     -0.000730      0.025281
O	      6.25118     12.09306     16.69290        -0.007653      0.001062      0.000715
O	      4.25598     10.07832     12.58441        -0.007815     -0.003776      0.024616
O	      6.36022     14.10882     18.79408         0.238988     -0.001976     -0.052483
O	      4.19941     12.09366     14.57486         0.016126     -0.000130      0.002430
O	      2.16565     14.10949     14.86412         0.083756     -0.000460      0.114955
O	      4.11715     14.10822     16.76072        -0.036739      0.002686     -0.081428
