# total energy = -223.38922601 eV
 
CRYSTAL
PRIMVEC
-0.000233 6.282935 6.179000 
10.322434 2.100092 12.351735 
6.209725 6.300365 8.221022 
PRIMCOORD
30 1
Li	      8.30155     12.53753     16.53211         0.007341     -0.029233     -0.008228
Li	      4.08927      6.28818     10.23325        -0.012521      0.003904     -0.002813
Li	      0.08879      2.09768      2.12448         0.010340      0.014448      0.000677
Li	      8.17530      8.40255     12.33465         0.011404      0.007003     -0.000456
Li	      6.20577      2.11214      8.15293         0.006734      0.004212      0.015279
Li	      6.31862     10.42194     12.45137         0.016017     -0.011215      0.019775
Li	      8.21101     10.48103     14.36892         0.009378     -0.009069     -0.011122
Li	      4.11233      4.25280      8.19084        -0.010808      0.007823     -0.003404
Ti	     10.35951      8.44627     18.50573         0.046382     -0.026936     -0.033861
Ti	      6.13249      6.35171     12.34049         0.014512      0.065966      0.071957
Ti	     14.49812     12.56674     22.66706        -0.046471     -0.019576     -0.003220
Ti	      4.14873      2.16723      6.12865         0.029497      0.086020     -0.063190
Ti	     14.42341      8.34372     18.48995        -0.069220     -0.063030     -0.018143
Ti	     12.34439     10.38939     18.46002        -0.050176     -0.018306     -0.094010
Ti	     14.52653     10.49822     20.65072         0.047235     -0.003808      0.075084
O	     12.44949     10.56244     20.49528         0.025202      0.034395     -0.064310
O	      4.14888      8.36837     10.28661         0.015686      0.014023     -0.007802
O	      6.15424      8.34978     12.33098        -0.084137     -0.085763     -0.012633
O	      8.29846      8.38398     14.41420         0.041630     -0.008188      0.042475
O	     10.29262      8.39706     16.48390        -0.020786     -0.012928      0.027769
O	     12.49287      6.28164     16.34920         0.060777      0.018132     -0.089168
O	      4.13330      4.21208      6.19528         0.000157      0.008463      0.001127
O	      6.19998      4.29110      8.32849        -0.006868      0.026324      0.155559
O	      8.22515      4.10783     10.37904        -0.038712     -0.035368      0.026667
O	     10.30948     10.51119     18.55469        -0.011730     -0.027963     -0.006240
O	     12.41149      8.34643     18.50294         0.034490      0.066150      0.002339
O	      4.14214      6.33930      8.19698         0.017673      0.048671     -0.033962
O	      6.21318      6.23955     10.27987        -0.010972     -0.015527      0.013098
O	      8.20411      6.26906     12.36192        -0.036835     -0.051527      0.014388
O	     10.31510      6.34510     14.42127         0.004780      0.012904     -0.013631
