# total energy = -223.48336693 eV
 
CRYSTAL
PRIMVEC
0.078072 6.268214 6.125429 
10.508609 2.188391 12.281850 
4.205871 2.128145 2.054973 
PRIMCOORD
30 1
Li	      4.29546      8.35994      8.23421         0.012978      0.000992      0.007713
Li	      4.30867      6.37166     10.22978         0.023966      0.020163     -0.003178
Li	      6.25799      6.40559     12.20070        -0.046976     -0.017304     -0.016921
Li	      6.42980      4.15887      6.21499         0.033538      0.016504      0.010427
Li	      8.38578      4.19276      8.18695        -0.021286     -0.022430      0.002195
Li	      8.40307      2.20209     10.18265        -0.017395      0.003348     -0.007127
Li	      6.32989      6.26036      8.27666        -0.000370     -0.004885     -0.024649
Li	      6.36991      4.30867     10.14191         0.006769      0.004606      0.026878
Ti	      6.33412      8.47841     10.26465        -0.092407      0.010500      0.046668
Ti	      8.51188      6.31248     14.31333         0.042149     -0.027181     -0.043721
Ti	     14.68324      6.43374     16.37580        -0.054721      0.007436      0.019911
Ti	      6.36423      2.08754      8.15266         0.103137     -0.001636     -0.054831
Ti	     10.62821      6.39791     16.33392         0.078850      0.025094     -0.007775
Ti	      8.45039      6.34104     10.23935         0.008802     -0.011410      0.025579
Ti	     12.58843      6.36478     14.36843        -0.058642     -0.002805      0.021787
O	      2.07063      2.10320      2.05672         0.014083     -0.047099      0.009263
O	      4.31463      2.19309      4.10459         0.107855      0.011558      0.015410
O	      6.30989      2.14817      6.14381         0.001074     -0.001329     -0.001187
O	      8.38226      8.37274     14.30956        -0.104216     -0.008486     -0.016631
O	     10.62226      8.46202     16.36142        -0.019386      0.035778     -0.011092
O	      2.15371      4.13252      4.19395        -0.004989     -0.023665      0.024548
O	      4.23108      4.27660      6.14520        -0.009699      0.019031      0.013721
O	      6.22492      4.09795      8.19926        -0.081632     -0.040426     -0.002786
O	      8.48175      4.30505     10.23186         0.014993      0.029215      0.003982
O	     10.46953      4.24179     12.26112         0.004296      0.002091     -0.001784
O	     12.74164      8.50999     18.43605        -0.006947     -0.005270      0.001542
O	      4.21327      6.25912      8.17890        -0.020290     -0.029521     -0.012969
O	      6.47071      6.46541     10.21926         0.081473      0.043893      0.006178
O	      8.46715      6.29749     12.26954         0.009765      0.003208     -0.020177
O	     10.54394      6.42355     14.23191        -0.004773      0.010030     -0.010975
