# total energy = -223.33933304 eV
 
CRYSTAL
PRIMVEC
-0.008642 10.409966 10.374739 
6.294123 4.134059 10.399302 
6.271805 10.379323 12.474980 
PRIMCOORD
30 1
Li	      6.19596     14.44820     20.58595         0.005256      0.016675     -0.030243
Li	     10.37386     20.63488     27.01133         0.016548     -0.005905      0.014143
Li	      8.32154     12.41673     16.77011        -0.008005     -0.000783     -0.016883
Li	      2.10284      4.19884      6.23594         0.001687     -0.015245     -0.002089
Li	      4.24297      4.12783      8.32077        -0.003946      0.013378     -0.016917
Li	      6.31610     16.57411     18.75777        -0.005483     -0.021587      0.004779
Li	      6.26294     12.55719     18.68353        -0.004226     -0.012703     -0.005294
Li	      4.21188      8.44461     12.47154        -0.006347     -0.004489     -0.015429
Ti	      2.06336     10.48657     12.51425         0.043333      0.030780      0.028379
Ti	      0.06091      2.02077      2.03552        -0.007120     -0.044395      0.008913
Ti	      4.25348     12.50625     16.50687         0.036065      0.050323     -0.056228
Ti	      6.28506     14.63929     16.75490        -0.048467      0.072101      0.344090
Ti	      8.28751     16.55632     20.82201        -0.054998     -0.052178     -0.039361
Ti	     10.52388     16.54515     22.94308         0.047864     -0.055147      0.042323
Ti	      2.08823      8.30516     10.35116        -0.015410      0.004272      0.024177
O	      8.44141     16.67200     22.97836         0.048704      0.027184      0.003362
O	      4.21377     12.47808     14.53452        -0.005462     -0.003940      0.003718
O	      6.26016     12.54402     16.58842        -0.076582      0.028356     -0.014749
O	      8.31200     18.76099     24.86837        -0.054677     -0.001345     -0.034499
O	      4.27759     14.44928     16.57827         0.059278     -0.093943     -0.004850
O	      6.26877     14.53525     18.58415         0.009980      0.034148     -0.318271
O	      8.36619     10.36349     16.63042         0.007531      0.012587     -0.030562
O	      4.08705      6.30945      8.38655        -0.021841      0.023055      0.022174
O	      6.27099     16.61230     20.74273        -0.010258      0.008587      0.008280
O	      8.47703     12.40927     18.72880         0.008760     -0.000682      0.037846
O	      4.14829      8.25512     10.30210        -0.033997     -0.014581      0.012376
O	      6.35511      8.25607     12.50827         0.047971     -0.010225      0.009730
O	      8.37083     14.49903     20.80791         0.004956     -0.021242     -0.011324
O	      4.13259     10.46130     12.45983        -0.008382      0.087563      0.020641
O	      6.25246     10.36519     14.56865         0.027266     -0.050618      0.011770
