# total energy = -223.24847978 eV
 
CRYSTAL
PRIMVEC
0.050894 10.334615 10.400036 
6.266247 6.189926 12.521363 
4.163327 4.140004 4.174153 
PRIMCOORD
30 1
Li	      0.12031     10.36921     10.47870         0.010669      0.026910     -0.003893
Li	      2.03126     10.39120     12.40893        -0.005481      0.017905     -0.029636
Li	      4.32825      6.07145      6.35098         0.009854     -0.004933      0.021179
Li	      6.18970      6.15144      8.24864        -0.008468     -0.014297      0.011062
Li	      0.03987      4.12495      4.16353        -0.019851     -0.006548      0.004604
Li	      4.30503     14.41023     18.73054         0.011356     -0.000006      0.002819
Li	     10.28876     16.56961     22.90768         0.011398      0.019264     -0.003325
Li	      2.14893      8.39807     10.50275         0.006077      0.015459     -0.031974
Ti	      4.28384     10.28666     14.51630         0.011132     -0.030930      0.020910
Ti	      8.36776     16.52218     20.90091         0.022010     -0.006453      0.310687
Ti	      2.13278      4.14377      6.19266         0.075130      0.004365     -0.030510
Ti	      6.29639     10.34774     12.56908         0.030087      0.028293     -0.029548
Ti	      8.29845     10.28467     14.52821        -0.052348     -0.089736     -0.062582
Ti	      6.31776     14.48512     20.83680        -0.031170     -0.006656     -0.073047
Ti	      8.24123     12.42891     16.75543        -0.066397      0.034575      0.008684
O	      8.40081      8.31388     14.61329         0.026148      0.072847      0.007355
O	      4.24848     12.33817     14.56679        -0.016575     -0.008901     -0.016719
O	      6.29489     12.42218     16.69214         0.054416      0.009693     -0.003885
O	      8.35031     10.37243     16.69084         0.003277     -0.003782      0.030344
O	      4.10335      4.09027      6.23885        -0.089588     -0.024749     -0.012211
O	      6.43075     14.47072     18.88810         0.049176     -0.000596      0.099661
O	      2.11827      6.18076      6.27854        -0.004169     -0.032403     -0.018094
O	      4.16311      6.17529      8.39922        -0.033475      0.008295      0.105904
O	      6.23914      6.22628     10.41494        -0.030694      0.025849      0.002480
O	      2.17757      8.24883      8.32970         0.017140     -0.026077      0.002656
O	      4.22395      8.21729     10.50886         0.014397     -0.024404      0.001379
O	      6.15207      8.32084     12.45091        -0.025088      0.039111     -0.030286
O	      8.34666     16.54588     22.75107         0.010159      0.004675     -0.275655
O	      4.14831     10.36139     12.42631        -0.011595     -0.010698      0.003046
O	      6.30089     10.29489     14.60973         0.032473     -0.016073     -0.011407
