# total energy = -223.26325190 eV
 
CRYSTAL
PRIMVEC
0.029645 6.183072 6.221159 
10.537244 -0.000523 10.418539 
10.537179 4.121679 10.418387 
PRIMCOORD
30 1
Li	     10.56849      4.12092     10.57475        -0.008280      0.000803     -0.005295
Li	      4.33368      6.18205     10.31402         0.017378      0.000603     -0.004791
Li	     10.51552      2.05983     12.33118         0.006638     -0.000352      0.005962
Li	     16.77754      6.18219     18.81213        -0.014993     -0.000251      0.003341
Li	     12.62975      8.24289     16.71111        -0.002847     -0.000468      0.019784
Li	     14.83976      8.24255     18.82701         0.017942      0.000925      0.014164
Li	      6.27191      4.12152     10.29907        -0.016882     -0.001308     -0.013586
Li	      8.48343      4.12145     12.41582         0.002338      0.000097     -0.018765
Ti	     12.63997      4.12006     12.53468         0.019471     -0.000343     -0.008695
Ti	     16.82406      4.12103     16.65883        -0.100251     -0.000164      0.037202
Ti	      8.48425      6.18299     14.53389        -0.079408     -0.006565      0.060152
Ti	     12.62819      6.18274     14.59222         0.081230     -0.004286     -0.059031
Ti	      4.25762      2.06003      6.24593         0.112505     -0.000315     -0.035191
Ti	      8.44274      2.05958     10.37116        -0.018333      0.006364      0.010810
Ti	     10.55644      4.12082     14.56390         0.001281      0.000230     -0.002976
O	     12.63171      2.05899     12.53387         0.001751      0.004536      0.012648
O	     14.65243      2.05982     14.68623        -0.109711      0.000429      0.072516
O	      6.29256      2.06036      6.23081        -0.047258      0.000367      0.000454
O	      8.44101      8.24420     14.50112         0.093146     -0.006208      0.011395
O	     10.43348      2.06056     10.34543        -0.099018     -0.004231     -0.128262
O	     12.67202      4.12119     14.62631        -0.097068      0.002315     -0.019534
O	     14.78985      4.12056     16.67411         0.043873      0.001509     -0.000511
O	      6.43094      4.12176      8.21846         0.103388     -0.000695     -0.068514
O	      8.45071      4.12100     10.37103         0.002536      0.003566     -0.005951
O	     10.64971      4.12061     12.56064         0.094256      0.001385      0.124722
O	     12.70322      6.18168     16.66949         0.024398      0.001431      0.036432
O	     14.68644      6.18165     18.65522        -0.144514     -0.000125     -0.097283
O	      6.42566      6.18259     10.47098         0.147386     -0.002222      0.100051
O	      8.40963      6.18207     12.45760        -0.028677      0.001706     -0.043172
O	     10.55647      6.18203     14.56327        -0.002276      0.001266      0.001926
