# total energy = -222.84384320 eV
 
CRYSTAL
PRIMVEC
-0.000195 2.080264 2.079720 
6.147403 -0.090727 6.329342 
12.281451 10.507175 1.972760 
PRIMCOORD
30 1
Li	     10.25072      6.31218      8.24644         0.016189      0.027342     -0.027605
Li	     12.28085      6.23137      6.24626        -0.011229      0.000700      0.001864
Li	     14.27177      8.22766      6.32987         0.003778     -0.010265      0.013190
Li	      2.17217      2.05965      4.17828        -0.011660      0.009172     -0.007054
Li	      4.11908      4.08761      4.23166         0.009038     -0.016600      0.014694
Li	     10.09590      8.47253      1.92713         0.004121     -0.009692      0.009927
Li	      6.14092      2.14652      4.09374         0.003732      0.004649     -0.006239
Li	      8.17703      4.04644      4.27323         0.005843      0.012210     -0.009396
Ti	     12.30367     12.55036      4.08651        -0.002890     -0.038022      0.037412
Ti	      8.30682      4.11709      8.36175         0.134594      0.045206     -0.043109
Ti	      6.06110      4.16595      2.07277        -0.055535     -0.013103      0.015993
Ti	      8.23381      8.35353      4.12609         0.060038      0.072119     -0.065041
Ti	     16.28775     10.45495      6.18397        -0.087069      0.040851     -0.033109
Ti	     10.18012      6.28081      4.11850        -0.039591     -0.055317      0.057911
Ti	     12.34899     10.47347      6.16472         0.016580      0.003071     -0.001424
O	      2.04710      2.12424      2.03544        -0.032649      0.048432     -0.037334
O	      4.08828      4.18525      2.05407        -0.072644      0.003682     -0.006568
O	      6.14904      6.22006      2.09949         0.025236     -0.036763      0.026233
O	     14.29746      8.20490      8.43262        -0.012052     -0.044800      0.047227
O	     16.40723     10.45135      8.26896         0.016491      0.048737     -0.049533
O	      4.13238      1.94356      4.29442        -0.021916     -0.102076      0.092048
O	      6.11931      4.24615      4.07261        -0.000270      0.032428     -0.021679
O	      8.11221      6.24484      4.15558        -0.017056      0.023685     -0.029281
O	     10.31031      8.41284      4.06668        -0.017128     -0.020889      0.013461
O	     12.31628     10.48114      4.07745         0.020392     -0.001117     -0.000549
O	      6.15133      1.95758      6.35829         0.005642     -0.015592      0.013917
O	      8.18056      4.03096      6.36767         0.024312     -0.094387      0.083104
O	     10.24964      6.35315      6.12657        -0.020141      0.054420     -0.059048
O	     12.27573      8.42007      6.13808        -0.013858      0.032945     -0.032440
O	     14.34590     10.46179      6.17658         0.069703     -0.001024      0.002426
