# total energy = -223.12594889 eV
 
CRYSTAL
PRIMVEC
-0.082554 30.534987 31.411837 
2.071130 6.106805 8.371187 
2.070844 10.178249 8.371070 
PRIMCOORD
30 1
Li	      2.00961      6.10751      8.23774         0.006112     -0.000266      0.000544
Li	      2.08571     16.28579     14.73413        -0.001093      0.001528     -0.017542
Li	      3.98180     26.46442     27.14996         0.001704     -0.000431      0.006564
Li	      4.02832     28.49885     29.27694         0.020154      0.001359     -0.002189
Li	      0.03678     16.28567     16.78177        -0.019470      0.001033      0.000914
Li	      0.08262     18.32126     18.90898         0.000429      0.001512     -0.004777
Li	      1.97856     28.49908     31.32459         0.002295      0.002054      0.020010
Li	      2.05545     38.67781     37.82081        -0.005779      0.000443     -0.000682
Ti	      2.02157      8.14384     10.41974        -0.097478     -0.000267     -0.097471
Ti	      4.05012     20.35725     21.01185         0.052094     -0.006013     -0.060000
Ti	      2.01265     14.25120     16.71146        -0.039318     -0.000213     -0.037950
Ti	      2.03260     20.35599     23.02949        -0.002169      0.000717     -0.001428
Ti	     -0.01817     20.35670     20.97659         0.041490     -0.003286      0.039462
Ti	      2.08669     30.53530     33.41850        -0.058204      0.009397      0.055970
Ti	     -0.02674     26.46461     27.26844         0.091924     -0.002314      0.092317
O	      2.02026     32.57146     33.48698        -0.016700      0.000066      0.015628
O	      1.96176     34.60729     35.55448         0.058226     -0.002149      0.063632
O	      2.10310     36.64192     37.60159         0.056232      0.001563     -0.147509
O	      1.96250      8.14342      8.45728        -0.061919      0.000008      0.146475
O	      2.10377     10.17973     10.50457        -0.055939     -0.002719     -0.058254
O	      2.04503     12.21487     12.57168         0.020773     -0.005275     -0.005118
O	      2.05696     14.24999     14.66859        -0.018153     -0.001437      0.010637
O	      2.02685     16.28543     16.72500        -0.012307      0.001431     -0.018935
O	      2.12922     18.32172     18.73089         0.154158     -0.003296     -0.066580
O	      2.02231     20.35620     20.93330        -0.002730      0.004669      0.022368
O	      2.03207     22.39269     23.02924         0.004168      0.000769      0.003782
O	      2.04282     24.42832     25.12546         0.007096      0.000756     -0.020939
O	      1.93627     26.46452     27.32823        -0.156381     -0.002034      0.060100
O	      2.03862     28.49914     29.33396         0.007597      0.002323      0.015937
O	      2.00772     30.53511     31.39044         0.023187      0.000070     -0.014965
