# total energy = -90.72171936 eV
 
CRYSTAL
PRIMVEC
0.020627 2.049997 2.186944 
6.172944 6.198560 -4.355092 
-4.107184 2.035847 -2.217432 
PRIMCOORD
16 1
Li	     -1.80621      4.26511     -2.37830         0.002703     -0.024386      0.030456
Li	      0.01833      6.16060     -2.10467         0.003361     -0.030274      0.028646
Li	      1.81439      5.99641     -4.16910        -0.003232      0.001998      0.006155
Li	      0.16960      4.20056     -0.17492        -0.048304      0.000428     -0.021336
Mn	      0.03430      2.06809      2.17287         0.047358      0.041885     -0.023042
Mn	      4.10855      8.24300     -4.38455         0.007259      0.033783     -0.024856
Ni	      2.05009      4.11030     -2.17778         0.020830     -0.025694      0.008544
Ni	      4.06401      6.13286     -2.10040         0.121554      0.089302     -0.070001
O	      4.20304      6.26092     -4.28007         0.005024      0.036697     -0.020786
O	     -0.11572      6.19863     -4.52542         0.100888     -0.131572      0.115914
O	      2.12149      8.33496     -4.38354         0.059881     -0.005867     -0.029179
O	     -2.13610      3.98645     -0.01466        -0.022560      0.014184     -0.020162
O	      0.16968      4.11394     -2.17529        -0.162059      0.009057     -0.003702
O	      2.07543      6.06013     -2.15357        -0.125658      0.125943     -0.039753
O	     -0.11295      1.95030      0.04742        -0.000163      0.009189      0.032206
O	      2.11730      4.24442     -0.06544        -0.006881     -0.144674      0.030895
