# total energy = -92.83392286 eV
 
CRYSTAL
PRIMVEC
1.977390 4.137812 2.056920 
4.067883 -4.183487 -0.020335 
4.068810 -0.019375 -4.187674 
PRIMCOORD
16 1
Li	      2.09356     -0.02037     -2.12745         0.016084      0.011046      0.011142
Li	      8.05090     -2.11558     -2.09753        -0.014528     -0.013889     -0.010551
Li	      4.05932      2.00252      2.00865         0.010207     -0.005040     -0.014271
Li	      3.99405      0.01743      0.00905        -0.012693      0.004974      0.018245
Mn	     10.05778     -0.06308     -2.13415        -0.017560      0.015340      0.021729
Mn	      2.06426      2.06321     -0.03304         0.017808     -0.014762     -0.022563
Ni	      5.98432      2.03467     -0.06473        -0.041111     -0.037597     -0.020621
Ni	      6.13783     -0.03474     -2.10271         0.040672      0.039056      0.021170
O	      6.03585     -0.13653      0.02946        -0.008071     -0.083103      0.101718
O	      6.04407     -2.06483     -1.95227         0.112454     -0.109454      0.059648
O	      3.93513      2.04203     -0.03127        -0.139202      0.003152      0.002165
O	      4.10057     -0.07305     -2.27169        -0.112578      0.110020     -0.061674
O	      8.18694     -0.04163     -2.13648         0.140793     -0.002126     -0.001442
O	      4.12743     -2.25095     -0.07060         0.023735     -0.020847      0.104022
O	      6.08626      2.13663     -2.19664         0.007273      0.082812     -0.104313
O	      1.94840      0.13260      0.03418        -0.023284      0.020417     -0.104403
