# total energy = -223.13378729 eV
 
CRYSTAL
PRIMVEC
-0.000543 2.086744 2.086558 
10.206896 -0.024931 10.455033 
10.277234 6.333677 4.097161 
PRIMCOORD
30 1
Li	     12.37547      4.14278     12.54454        -0.029742      0.000861     -0.001436
Li	      4.00218      2.13771      2.03185         0.029356      0.000124      0.000751
Li	     14.37354      8.33272     10.44132        -0.007325     -0.008584      0.007942
Li	      8.35712      6.27070      6.24322        -0.009034     -0.021462      0.023630
Li	     16.35101      6.29768     10.38642         0.002581      0.010858     -0.006350
Li	     10.30522      6.31559      8.28705        -0.003396     -0.009807      0.007968
Li	     18.29861      6.34312     12.42801         0.010942      0.021876     -0.019387
Li	     12.28251      4.28114      8.23420         0.002425      0.010876     -0.013817
Ti	     10.12331      0.02397     10.40243        -0.059636      0.031044     -0.026915
Ti	     14.23496      4.21802     10.38283        -0.154788      0.040259     -0.039712
Ti	      2.14396      2.06335      4.19487         0.155526     -0.047239      0.034616
Ti	     16.46213      6.23142     14.62859         0.062300     -0.036020      0.029765
Ti	      6.07583      2.13748      4.12053        -0.043043      0.030927     -0.029382
Ti	      8.18808      4.18395      8.33105         0.013523     -0.001218     -0.001162
Ti	     10.30251      4.14303     10.45542         0.040483     -0.025640      0.021277
O	      1.99107      2.05408      2.11624        -0.041849     -0.029136      0.022596
O	     14.38738      4.22627     12.46102         0.046304      0.030470     -0.026772
O	     16.31979      6.22350     12.55093        -0.026655     -0.044667      0.039841
O	      4.08444      2.12422      4.13195        -0.061361     -0.000711      0.006171
O	      6.15951      4.20170      4.14124         0.010872     -0.009748      0.007626
O	     18.43163      6.29434     14.56397        -0.005136      0.001274      0.000802
O	      6.14911      2.13977      6.20415         0.044544     -0.007446      0.014485
O	      8.17178      4.16033      6.26568        -0.015683     -0.021530      0.018857
O	     10.33684      6.39062      6.12231         0.024036      0.041094     -0.038965
O	      8.20648      2.12053      8.30952         0.023677      0.018140     -0.009856
O	     10.22837      4.14100      8.37137        -0.041384     -0.000649     -0.004537
O	     12.31623      6.40108      8.20007         0.021253      0.048091     -0.048883
O	     10.21918      2.07784     10.43518        -0.008770      0.028699     -0.015460
O	     12.29415      4.15690     10.44408         0.047253      0.000244     -0.005053
O	     14.34005      6.21366     10.47375        -0.027271     -0.050980      0.051358
