# total energy = -199.47142952 eV
 
CRYSTAL
PRIMVEC
0.009515 4.106104 4.107319 
14.919617 2.051450 16.463735 
4.261275 2.057629 2.058467 
PRIMCOORD
28 1
Li	     14.91548      2.12578     16.39202         0.001943      0.022358     -0.023454
Li	     10.66324      6.16096     12.34415        -0.000523     -0.003419      0.000652
Li	     12.79331      6.13816     14.42546         0.001482      0.002609      0.002176
Li	     12.79337      4.12168     16.44683         0.000351      0.014355     -0.017445
Li	      6.39644      4.10322      6.17983         0.000255      0.003258     -0.003664
Li	      8.52869      4.08532      8.25532         0.001264     -0.000101      0.001823
Li	     10.65787      4.09560     10.30359         0.002083     -0.019602      0.020175
Li	     14.91758      4.08357     14.43171         0.000531     -0.014126      0.014374
Li	     12.78926      2.07624     14.38086        -0.000100     -0.007010      0.008685
Ti	      6.40208      6.15413      8.23328        -0.001855      0.029683     -0.028208
Ti	      8.53118      6.07660     10.37086         0.002049     -0.063493      0.067164
Ti	     10.66431      4.12960     14.37586         0.002755      0.023727     -0.024256
Ti	     14.92588      4.13814     18.48612         0.000373      0.063802     -0.064674
Ti	      8.52836      2.09158     10.24847        -0.002577     -0.015912      0.018881
O	      1.97206      1.95597      2.07852        -0.076988     -0.090717      0.009634
O	      4.38230      2.05072      4.12407         0.036182      0.022382      0.002154
O	      6.56654      2.06304      6.09459         0.083786      0.005524     -0.066308
O	      8.48262      2.06272      8.21871         0.019891     -0.019529     -0.031946
O	     10.51450      6.09300     14.41527        -0.061073     -0.091741     -0.007000
O	     12.94491      6.25829     16.43103         0.064750      0.066505     -0.010835
O	     14.98437      6.08716     18.46538        -0.035379     -0.109056     -0.083391
O	      2.30073      4.08720      4.21084         0.079214     -0.009107      0.092641
O	      4.15097      4.10057      6.17455        -0.040909     -0.002630     -0.025220
O	      6.22680      4.18811      8.22072        -0.078598      0.065603     -0.006002
O	      8.57241      4.12215     10.27807        -0.019112      0.028767      0.019127
O	     10.81244      4.09040     12.41323         0.058998      0.009861      0.094127
O	     12.64412      4.13374     14.30519        -0.069513      0.007853     -0.067273
O	     14.86580      4.15819     16.53641         0.030719      0.080157      0.108065
