# total energy = -199.45582137 eV
 
CRYSTAL
PRIMVEC
-0.013812 14.642638 14.529414 
2.080251 2.089532 4.151535 
4.179387 6.293009 2.054026 
PRIMCOORD
28 1
Li	      2.07869      2.09798      4.14685         0.011527     -0.004401     -0.009747
Li	      4.11910     18.82964     18.63082         0.002413     -0.001559     -0.008939
Li	      2.15124      4.20602      2.10893         0.025126     -0.006693      0.002587
Li	      2.09821      6.25405      4.10627         0.017696      0.003750     -0.010180
Li	      4.15266     10.49571     10.40278        -0.021577     -0.009424      0.015181
Li	      4.17199     14.65060     10.36423        -0.010050      0.001375      0.005295
Li	      4.09864     12.54170     12.40011        -0.025479      0.004619     -0.000169
Li	      2.11504     12.55907     10.40943         0.001146      0.003444      0.008684
Li	      2.07860     14.64958     12.44310        -0.003583     -0.000142      0.001196
Ti	      0.04557      2.04469      2.07258         0.164164     -0.150242     -0.000106
Ti	      4.17491     10.47570      6.20671        -0.002656      0.010498     -0.004244
Ti	      6.20438     14.70415     12.43823        -0.152559      0.149377     -0.004973
Ti	      6.24123     18.84439     16.59344        -0.048664      0.031520      0.013272
Ti	     -0.00556     12.54503     12.44664         0.047242     -0.024177     -0.012808
O	      1.97670     16.63925     16.57149        -0.146272     -0.081672      0.017290
O	      4.25845     18.78939     16.49548         0.083445      0.039260     -0.072688
O	      2.00279      4.21355      4.22986        -0.067957      0.009309      0.070888
O	      4.26036      6.39431      4.17238         0.069590      0.153993     -0.015411
O	      2.02444      6.21751      6.29361        -0.020932     -0.029295      0.034324
O	      4.16441      8.48709      6.11601        -0.018212      0.075171     -0.070898
O	      2.08593      8.26217      8.39447         0.016851     -0.084887      0.076228
O	      4.22598     10.53093      8.21698         0.021227      0.028928     -0.033698
O	      1.98926     10.35440     10.33922        -0.071018     -0.157460      0.012538
O	      4.24753     12.53467     10.28133         0.070776     -0.008729     -0.078144
O	      1.97754     12.59957     12.54383        -0.087144     -0.036325      0.079675
O	      4.25971     14.75057     12.46866         0.142318      0.082886     -0.017214
O	      2.10162     14.53124     14.63200        -0.014483     -0.091522      0.097736
O	      4.13296     16.85846     14.40814         0.017063      0.092399     -0.095674
