# total energy = -199.22214674 eV
 
CRYSTAL
PRIMVEC
0.361033 28.263137 30.201161 
2.138753 4.037512 6.497492 
2.138706 8.075144 6.497509 
PRIMCOORD
28 1
Li	      4.14395     12.11612     12.98500        -0.016078      0.001858     -0.018038
Li	      0.18474      4.04061      4.32260         0.017872      0.003520      0.020025
Li	      0.17512      6.05552      6.40099         0.001100     -0.002293     -0.024061
Li	      2.21777     12.11794     15.02306        -0.020601      0.006125     -0.027756
Li	      0.25975     14.13180     15.15597         0.018325     -0.003206      0.007084
Li	      2.34424     24.22338     23.75531         0.001267     -0.002504      0.002866
Li	      4.42913     30.28184     32.35342        -0.020387     -0.003152     -0.007657
Li	      2.47152     32.30596     32.48575         0.023579      0.005670      0.027422
Li	      4.51415     38.35599     41.11077         0.001032     -0.002313      0.020055
Ti	      2.16522      6.12448      8.65340         0.008284      0.104737     -0.002373
Ti	      4.36611     22.20224     23.74627         0.014689     -0.004941     -0.086654
Ti	      0.27172     12.11173     13.01119         0.332015     -0.002893      0.128383
Ti	      4.41712     32.29930     34.49863        -0.338077      0.000242     -0.132189
Ti	      0.32444     22.20228     23.76127        -0.015412     -0.006475      0.083583
O	      2.36536     30.28028     32.21099        -0.073720      0.001548     -0.113751
O	      2.57969     32.30055     34.56175         0.306998     -0.005885     -0.006961
O	      2.61063     34.31676     36.85899         0.093458      0.007414      0.057999
O	      2.16472      8.05510      8.65364        -0.002495     -0.092753      0.001824
O	      2.07908     10.09095     10.64913        -0.094568      0.009159     -0.055093
O	      2.10977     12.11258     12.94748        -0.313611     -0.003623      0.008970
O	      2.32406     14.12994     15.29809         0.067446      0.002751      0.106792
O	      2.18136     16.14813     17.40438        -0.018320      0.001083      0.007626
O	      2.29335     18.16813     19.31480        -0.012308     -0.005956     -0.010902
O	      2.25319     20.18752     21.40755        -0.031250     -0.003478     -0.138251
O	      2.34433     22.20423     23.75431        -0.002058      0.001832     -0.002007
O	      2.43558     24.22500     26.10107         0.039479     -0.002204      0.146709
O	      2.39530     26.24303     28.19253         0.015971     -0.001596      0.014760
O	      2.50776     28.26111     30.10565         0.017373     -0.002667     -0.008404
