# total energy = -199.33340898 eV
 
CRYSTAL
PRIMVEC
0.073991 14.595090 14.616808 
2.112201 4.180218 6.264813 
4.244494 10.456805 6.253993 
PRIMCOORD
28 1
Li	      2.06328      4.22999      6.25742        -0.010783      0.025368     -0.004662
Li	      4.22595     12.53400      8.41077        -0.010659     -0.010619      0.018579
Li	      4.26694     14.62559     10.43130        -0.001102      0.001745      0.000554
Li	      4.22387     10.47718     10.43746        -0.005413     -0.002641     -0.001866
Li	      2.17293     10.44127     12.46148         0.013488      0.010264     -0.020139
Li	      4.33581     18.74617     14.61575         0.011774     -0.028347      0.003585
Li	      4.28492     20.92896     16.77149        -0.016127      0.013488      0.022097
Li	      2.17693     12.49813     10.43471         0.002963      0.003050      0.006198
Li	      2.18855     16.64099     18.71841         0.019116     -0.012257     -0.022230
Ti	      2.18092     16.69485     14.61278        -0.001103     -0.000766      0.000414
Ti	      2.18967     18.76565     16.73913         0.059623      0.012500      0.104757
Ti	      4.22232     12.48282     12.35007        -0.097010     -0.074627     -0.409874
Ti	      2.17747     10.49195      8.52297         0.096233      0.072114      0.423094
Ti	      4.28439     18.80457     18.75074        -0.059517     -0.017456     -0.106329
O	      2.14645     16.78581     16.60717        -0.003788      0.100125     -0.094338
O	      4.16529     18.82917     16.79427        -0.110071     -0.005846      0.152885
O	      2.30891     18.74032     18.69568         0.110265      0.010395     -0.149918
O	      4.32756     20.78413     18.88279         0.001469     -0.103510      0.091661
O	      2.19371      6.35462      6.26571         0.083938      0.119622     -0.002366
O	      4.25188     22.90414     20.96083        -0.058540     -0.057017      0.057122
O	      2.22758      8.43898      8.31370         0.052818      0.027027     -0.017087
O	      4.11949     10.36030      8.32578        -0.115250     -0.058839      0.012859
O	      2.11568     10.42296     10.34248         0.014155      0.002556     -0.422679
O	      4.28477     12.55246     10.53127        -0.016133     -0.007739      0.403328
O	      2.28080     12.61412     12.54743         0.115153      0.066182     -0.012096
O	      4.17272     14.53589     12.55931        -0.055424     -0.027823      0.017837
O	      2.22242     14.66555     14.52939         0.058013      0.057834     -0.058054
O	      4.20593     16.61996     14.60698        -0.078086     -0.114782      0.006667
