# total energy = -199.11834778 eV
 
CRYSTAL
PRIMVEC
-0.000360 14.798846 16.132428 
3.922382 2.183867 6.842086 
3.922123 14.798882 16.132465 
PRIMCOORD
28 1
Li	      3.92068     17.13802     22.90037         0.000568      0.041406      0.007812
Li	      1.95941     14.91912     18.16751         0.001118      0.042680     -0.016236
Li	      3.92082      4.17170      8.99420         0.002081     -0.021461     -0.023433
Li	      3.92083     19.03890     20.99783         0.001469      0.013340      0.017868
Li	      5.88171     18.94168     23.12913         0.001226     -0.027818     -0.015341
Li	      3.92126     10.66774     15.95067        -0.001608      0.012726     -0.035830
Li	      1.96045      8.44392     11.28281        -0.001778     -0.012774     -0.008630
Li	      5.88267     25.48842     30.12833        -0.002223      0.023878      0.008283
Li	      3.92095     14.82547     20.47478         0.001845     -0.011984     -0.011951
Ti	      1.96172      2.12166      4.44331        -0.007574      0.011813     -0.201382
Ti	      3.92100     21.02211     22.92650        -0.000359     -0.257151     -0.184705
Ti	      1.95960      6.49735      9.29061         0.002145      0.096535      0.081698
Ti	      3.92087     12.89128     18.47661         0.000776      0.295380      0.074887
Ti	      1.95944     12.80893     16.04664         0.001485      0.040659     -0.065868
O	      1.95978     16.96606     18.68204        -0.000808      0.028537      0.241129
O	      3.92090     16.93886     20.86256         0.001027     -0.020514     -0.028309
O	      5.88230     21.13477     27.32416        -0.001017     -0.057970     -0.214963
O	      3.92058     19.16398     23.03530         0.001244      0.286880     -0.020934
O	      1.95971     21.15549     23.31821        -0.001869     -0.031825     -0.013534
O	      3.92058     21.23098     25.06803         0.003582      0.037650      0.045193
O	      1.95995      8.42349      9.22749        -0.001057     -0.099447      0.011301
O	      3.92141      8.52010     11.78271        -0.000983      0.017946      0.270007
O	      5.88206     12.67740     18.15199         0.001819      0.013624      0.041652
O	      3.92133     10.54357     13.53917        -0.001044     -0.031626     -0.170898
O	      1.96004     12.76676     14.11296        -0.000811      0.130499      0.248446
O	      3.92077     12.59427     16.36956         0.001193      0.043212     -0.025075
O	      5.88194     16.89457     22.85863         0.000516     -0.222498     -0.028913
O	      3.92087     14.72899     18.43086        -0.000962     -0.341698      0.017724
