# total energy = -92.00313562 eV
 
CRYSTAL
PRIMVEC
2.076295 4.066735 2.076875 
4.142072 -4.058990 -0.004551 
4.145678 -0.000810 -4.145490 
PRIMCOORD
16 1
Li	      6.20569     -2.04322     -0.03023         0.002260      0.008210      0.018293
Li	      4.15395      2.05064     -2.04491        -0.005846     -0.003354     -0.014258
Li	      2.09009     -2.02466     -0.01462         0.006258     -0.002030     -0.000661
Li	      4.09658      0.00426      0.00835        -0.017375     -0.012699      0.012795
Mn	      6.20790     -0.00098      2.05203        -0.032728      0.003987     -0.013825
Mn	      2.09618      0.00590     -2.06216         0.020801      0.000991      0.027087
Ni	      4.13842     -2.02767     -2.06646        -0.009767     -0.002735      0.008674
Ni	      6.25279      0.01169     -2.11124        -0.009361      0.004349     -0.028359
O	      6.36072     -0.02199     -0.01594         0.016101     -0.122203      0.124337
O	      6.15058     -2.07591     -2.07914         0.143197     -0.120903      0.004342
O	      4.22599      2.17959      0.02097        -0.160566      0.046767     -0.006077
O	      4.07529      0.03564     -2.11374        -0.073832      0.116687     -0.056707
O	      8.31606     -0.00069     -1.94816         0.145582      0.000792      0.013716
O	      4.13782     -2.17524     -0.07876         0.000352     -0.010418      0.155985
O	      6.20885      2.09405     -2.00860         0.009346      0.099223     -0.134137
O	      2.01044      0.01453     -0.07317        -0.034422     -0.006663     -0.111205
