# total energy = -235.31638685 eV
 
CRYSTAL
PRIMVEC
0.000783 16.392478 16.545955 
4.180360 12.272368 16.567970 
4.176659 6.143891 6.208157 
PRIMCOORD
32 1
Li	      6.29019     22.43307     24.85632         0.000874     -0.007181     -0.004201
Li	      4.18596     14.41996     18.65595         0.019459      0.006720      0.000517
Li	      4.10197     10.16100     10.35839        -0.018395     -0.000449      0.020662
Li	      6.25665     26.62840     28.99041        -0.004446     -0.007345     -0.003344
Li	      4.16685     12.26084     12.42013        -0.006985     -0.032171     -0.006515
Li	      4.25002     20.47384     24.74320         0.007496      0.007482     -0.020698
Li	      2.09755      8.25191     10.33454         0.006443      0.000975      0.001396
Li	      6.25501     16.31923     18.56662        -0.006638     -0.000117      0.010865
Li	      6.22672     20.50254     22.83756         0.006378      0.004175     -0.007314
Ti	      4.17691     12.34435     16.59339         0.103660      0.017810      0.070808
Ti	      2.11856     18.45054     20.69363         0.006991     -0.082319      0.008180
Ti	      2.12407      6.22810      8.24633         0.023115      0.326892      0.004021
Ti	      4.15309     16.29936     16.50336        -0.013985     -0.136176     -0.038929
Ti	      4.16314     18.39182     18.62924        -0.037614      0.002285      0.054251
Ti	      2.09280     12.28762     14.49275        -0.091920     -0.021240     -0.052728
Ti	      4.16945     20.48635     20.69918         0.037574     -0.004629     -0.021493
O	      2.16732     18.44831     18.72132         0.031320     -0.000931      0.054451
O	      4.17564     18.37967     20.72636        -0.007122      0.066545      0.005629
O	      2.08483      4.10734      4.15647         0.070618     -0.039058      0.012549
O	      4.17063     20.60933     22.66690        -0.006226      0.079532     -0.054790
O	      6.28142     18.43286     22.74736         0.047737      0.007380     -0.019503
O	      4.17948     22.50641     24.82780        -0.044764      0.001165     -0.008241
O	      2.10929      8.06625      8.27148         0.003057     -0.307219     -0.009247
O	      4.22517     24.51071     26.95321        -0.003305     -0.051931     -0.003645
O	      6.14926     22.59409     26.91167        -0.060776      0.091730     -0.020911
O	      4.17501     10.12090     12.53509        -0.001160     -0.075715      0.086104
O	      2.07183     12.28877     12.41828         0.021326      0.032735      0.023902
O	      4.19408     12.29637     14.46711        -0.057469     -0.038551      0.007135
O	      6.24046     26.61226     31.03347        -0.045534      0.005974     -0.002183
O	      4.18871     14.34313     16.55346        -0.006197      0.058090      0.012108
O	      6.27920     28.66494     33.07141         0.048495      0.002891     -0.005741
O	      4.16942     16.43833     18.53287        -0.022007      0.092648     -0.093097
