# total energy = -235.64271904 eV
 
CRYSTAL
PRIMVEC
-0.006013 8.334013 8.236589 
4.163710 4.163507 8.237070 
6.258991 6.259652 4.104521 
PRIMCOORD
32 1
Li	      4.23048     12.51538     16.42380        -0.024974     -0.005806      0.008862
Li	      6.25977     14.57282     16.46562         0.019078     -0.011719     -0.004028
Li	      4.10682     10.48890     10.18286        -0.000388      0.012101     -0.027471
Li	      6.27568      8.23242     10.15902         0.010170     -0.004593     -0.032149
Li	      8.31616     16.60127     16.50945         0.002523      0.023031     -0.005423
Li	      4.27132      6.22821      6.30049         0.011337     -0.001040      0.030510
Li	     10.33506     16.75688     18.51921         0.018691     -0.024620      0.000162
Li	      6.17878     12.56158     14.51372        -0.002107      0.003230      0.024615
Li	      4.15752      8.34711      8.22807         0.003106      0.000588     -0.000720
Ti	      2.05338      8.35756     10.29527        -0.083774      0.048374      0.003704
Ti	      0.02382      2.05940      2.05687         0.094122     -0.126386      0.025008
Ti	      4.17296     12.49456     12.35084        -0.063789      0.077637     -0.039945
Ti	      0.05272      4.22304      4.17978        -0.082957     -0.117637      0.056705
Ti	      6.26512     10.40646     12.34685         0.024093     -0.059662      0.009400
Ti	      2.08498      4.15984      6.17568         0.004479     -0.030068      0.022485
Ti	      8.28107     12.45262     12.27952         0.102665      0.075798     -0.047479
O	      1.99884     10.33344     10.21382        -0.073297     -0.060984      0.040872
O	      8.31911      8.39990     10.33995         0.052676      0.045540      0.092034
O	      4.18163     10.42299     12.34594         0.049270     -0.009349     -0.007736
O	      6.24519     12.48790     12.35112         0.015267     -0.050313      0.007143
O	      2.11305      4.13467      4.07080        -0.019011      0.074898     -0.017850
O	      8.37117     10.39199     12.38790        -0.082470      0.014591      0.012926
O	      4.10665      4.18515      6.11997        -0.045208     -0.049234     -0.078044
O	      6.33506     14.67062     14.48040         0.073496      0.088018     -0.041203
O	      2.06945      6.24092      6.15963        -0.020079      0.005709      0.048972
O	      8.39019     12.55296     14.34215         0.005435      0.027564     -0.026565
O	      4.03768      6.24203      8.33011        -0.089162     -0.005429      0.081120
O	      6.26297      8.46707      8.12868         0.002136      0.106329     -0.094046
O	      2.06928      8.22325      8.32347         0.002671     -0.076474      0.089233
O	      8.44354     14.59954     16.37135         0.092158     -0.002539     -0.090832
O	      4.11563      8.27766     10.35276        -0.019297      0.005430      0.029067
O	      6.26069     10.43556     10.30058         0.023143      0.027014     -0.069324
