# total energy = -234.87473798 eV
 
CRYSTAL
PRIMVEC
-0.042961 8.507769 8.507098 
8.258729 4.318717 12.652603 
8.258721 6.402462 10.569071 
PRIMCOORD
32 1
Li	      8.23433      8.56715     12.73113         0.015679     -0.005635     -0.004311
Li	     10.15993      8.58119     14.83060        -0.025489     -0.007741     -0.007818
Li	     12.23699      8.47659     16.81014        -0.006713     -0.004413     -0.005696
Li	      8.32357      8.49211     16.82514         0.008812     -0.006169     -0.005944
Li	      6.20151      4.37223     10.62147         0.015850      0.018055      0.018765
Li	      8.22579     12.88652     17.05390         0.020779      0.010979      0.008891
Li	      2.06979      6.44216      8.52584        -0.013146      0.012074      0.010237
Li	      4.26016      6.35255     10.51845         0.021849      0.016945      0.017152
Li	      6.18053      6.37964     12.62882        -0.002716     -0.012581     -0.011950
Ti	      8.15126      6.38843     10.55380        -0.339762     -0.037760     -0.035201
Ti	      2.08643      8.54579     10.62749         0.038482      0.012382      0.011314
Ti	     12.30457     14.92907     23.26053        -0.057269     -0.020803     -0.018526
Ti	      6.27619      8.58628     14.83471         0.253687     -0.066505     -0.063348
Ti	      6.23083     10.66192     16.91205         0.032530     -0.004881     -0.006838
Ti	     10.14684     10.65179     16.90160        -0.089872     -0.033459     -0.034211
Ti	      4.16529      4.28501      8.45144        -0.060984      0.022512      0.022184
O	     10.30024      6.42233     14.75474         0.077390     -0.027574     -0.027986
O	     12.38925     14.90691     25.32199         0.038251     -0.002007      0.000893
O	      6.10005     10.65956     14.82527         0.102349     -0.004884     -0.005687
O	      8.23125     10.68129     16.93112         0.046430      0.007984      0.008693
O	     10.28030      8.64903     16.98211        -0.029182      0.057940      0.059816
O	      4.11169      4.28021      6.36272         0.006550      0.053309      0.055779
O	      6.15276     12.70854     16.87513        -0.023053      0.012759      0.013060
O	      8.27108     12.89921     19.14804        -0.023842      0.035906      0.034297
O	     10.36075     10.61756     18.95115         0.025402     -0.014614     -0.014981
O	     12.40301     10.60238     21.01941         0.019321     -0.095274     -0.096936
O	      6.30850      6.41495     10.58065         0.362987     -0.012196     -0.013344
O	      8.32598      6.35883     12.60817         0.048503     -0.036892     -0.038144
O	     10.27908     12.90676     21.23871        -0.039185      0.007415      0.007784
O	     12.39651     12.87127     23.28673        -0.070753      0.038063      0.035786
O	      6.11130      8.63360     12.79821         0.009271      0.066588      0.068894
O	      8.11416      8.55858     14.80784        -0.362157      0.020478      0.017376
