# total energy = -235.34274284 eV
 
CRYSTAL
PRIMVEC
-0.019261 4.149562 4.227338 
16.639031 2.128706 18.892081 
12.472652 4.162603 12.611130 
PRIMCOORD
32 1
Li	      6.30773      4.33512     10.48189         0.023176     -0.011186     -0.007432
Li	      8.33476      4.28167     12.58940         0.004945     -0.018380      0.000881
Li	     10.46127      4.19444     14.77278         0.009800     -0.005019      0.018193
Li	     12.46662      4.20344     16.80914         0.010852      0.003705     -0.004073
Li	     26.95306      8.38295     31.51034        -0.012265     -0.008357     -0.010820
Li	     12.45122      6.19320     14.70208         0.001818     -0.000714     -0.006110
Li	     14.44807      6.12565     16.90549        -0.008644      0.005517      0.026484
Li	     16.61603      6.09004     18.90372        -0.000694     -0.003062     -0.006986
Li	     24.96026      6.26696     27.34361        -0.007923      0.015214      0.001140
Ti	     12.52185      4.16924     12.67749         0.047114      0.061445      0.084119
Ti	      2.07729      4.23057      6.27311        -0.039684      0.057154      0.007999
Ti	      4.12455      4.24448      8.40953         0.006545      0.091567      0.043455
Ti	     18.73571      6.17396     21.03003         0.051575     -0.043982     -0.023633
Ti	     20.74220      6.19047     23.13839        -0.007767     -0.054901     -0.040877
Ti	     22.90270      6.24628     25.23438         0.022731     -0.118658      0.043961
Ti	     14.51805      2.13088     16.72129        -0.043561      0.066180     -0.134076
O	     18.71454      4.20069     20.97108         0.008452     -0.001072     -0.001416
O	     20.78150      4.19567     23.12877         0.010228     -0.013266     -0.001581
O	      6.24797      2.14762      6.41365        -0.016878      0.089821      0.025658
O	      8.22140      6.23472     12.73509        -0.089313     -0.019331      0.066736
O	     10.32906      6.26665     14.78450        -0.022658      0.049550      0.051584
O	     12.37127      6.32927     16.81792        -0.106094      0.083890      0.023625
O	     14.55732      6.34489     19.00130        -0.011853      0.042523      0.146393
O	     16.59276      6.27933     21.01701        -0.012471     -0.008048     -0.007567
O	     18.69510      6.25720     23.09981        -0.010582     -0.006588     -0.023072
O	     20.82568      6.28827     25.25359         0.028554      0.008583      0.023501
O	      6.18647      4.11786      8.37672        -0.008966     -0.017852     -0.035978
O	      8.39897      4.06889     10.53644         0.099754     -0.052991     -0.000300
O	     10.47446      4.12753     12.52885         0.014813     -0.083278     -0.046196
O	     12.52912      4.19308     14.62933         0.052577      0.006622     -0.121469
O	     14.54328      4.17272     16.75692         0.007022     -0.058514     -0.025290
O	     16.63144      4.09974     18.76256        -0.000605     -0.056572     -0.066852
