# total energy = -235.22973965 eV
 
CRYSTAL
PRIMVEC
-0.032043 8.424024 8.352837 
8.234226 2.140699 10.374651 
6.158598 8.425632 10.415558 
PRIMCOORD
32 1
Li	     10.24326     16.97920     23.01889         0.022649     -0.016687      0.007310
Li	     12.31123     16.87747     25.03377        -0.016604      0.007060      0.011508
Li	      2.23747      2.01523      4.18334         0.010391     -0.000844     -0.001645
Li	     10.19704     10.42268     16.56991         0.006595     -0.037510     -0.004774
Li	      4.11617      4.32611      8.34321         0.010095      0.013920     -0.004617
Li	      6.16097      4.35856     10.45140         0.000123      0.002254     -0.008195
Li	      8.22737      8.43859     16.57970        -0.007182     -0.008391     -0.004907
Li	      1.98751      6.28879      8.23905        -0.003755      0.007777      0.005056
Li	     12.25100     14.66210     22.87460         0.010021     -0.019197      0.006084
Ti	      6.14966      8.36217     10.42596         0.003890     -0.095045      0.039378
Ti	      8.23797     16.81985     20.90118        -0.015748     -0.062603      0.094130
Ti	      6.09205     10.60480     12.56994        -0.288238      0.024668      0.067716
Ti	      6.12185      2.15547      8.21157        -0.037959     -0.044655     -0.130796
Ti	      6.05561     12.61591     14.57011        -0.059652     -0.010819     -0.028899
Ti	      2.13212      4.34223      6.24893         0.076730      0.398001     -0.016024
Ti	      4.11711      6.35294     10.40604        -0.011657     -0.035326     -0.049200
O	     10.22806     12.66783     20.82566        -0.007308      0.007722     -0.007672
O	      4.21601     10.52201     12.50947         0.256610      0.028870      0.010257
O	      6.11656     10.52297     14.58751        -0.005025      0.013160      0.045233
O	      8.14148     10.62820     16.69106        -0.040223      0.046129      0.048184
O	     10.20980      6.32374     14.54291        -0.004907      0.016931      0.007191
O	      4.07387     12.64689     14.58526        -0.010178      0.016431      0.014042
O	      6.21041     12.59316     16.64145         0.022937     -0.031062     -0.004894
O	      8.23494     12.59296     18.68868         0.008549     -0.037103     -0.019742
O	     10.28136      8.30952     16.63169         0.025353     -0.369470      0.007192
O	      4.09862      6.42974      8.45906        -0.002479      0.061482      0.097754
O	      6.13703      6.40376     10.41447        -0.056171      0.128097      0.002466
O	      8.18571      6.35101     12.44323         0.013804      0.037562      0.000937
O	     10.26549     10.56293     18.74613         0.013560      0.006791      0.009585
O	      4.12545      8.44796     10.40597         0.028457     -0.047915      0.002386
O	      6.22039      8.51693     12.41748         0.064070      0.039174     -0.089802
O	      8.21415      8.38436     14.50413        -0.006749     -0.039404     -0.105240
