# total energy = -234.90506311 eV
 
CRYSTAL
PRIMVEC
0.008121 4.161171 4.161100 
8.201264 -0.128725 8.466793 
8.205415 6.249980 6.249355 
PRIMCOORD
32 1
Li	      8.16453     -0.01702      8.47173        -0.005061     -0.003867      0.010526
Li	     10.25646      6.00344     12.74710        -0.001402      0.006304      0.012003
Li	     12.31841      6.18124     14.74343        -0.000027     -0.006070     -0.002172
Li	      6.15697      6.37654      8.18968         0.010828      0.034921     -0.017400
Li	      8.20202      1.92393     10.50711        -0.014508      0.004177     -0.016620
Li	     10.26026      3.90856     10.65386         0.000433     -0.004475      0.001658
Li	     12.34386      4.02514     12.52293         0.006420     -0.004588     -0.008109
Li	      6.15571      4.24076      6.17654        -0.004801      0.008407     -0.016680
Li	     14.35417      8.16290     14.74709         0.014551     -0.006232      0.016549
Ti	      2.06751      4.10804      6.25627         0.003302     -0.013103     -0.065597
Ti	      4.21884      4.06722      8.37469         0.070820     -0.065541     -0.040218
Ti	     14.35899      6.01763     12.73093        -0.000850     -0.334403      0.340742
Ti	      8.09656      6.20475     10.50952        -0.063958      0.029709      0.057273
Ti	     10.25485      8.31498     10.49450        -0.015565      0.090857     -0.008375
Ti	      4.06637      2.05583      6.29706        -0.058354      0.023672      0.037428
Ti	      8.24189      4.10763      8.35465         0.068234     -0.031141     -0.015207
O	      2.05502      1.96815      2.19147        -0.004681     -0.042626      0.050987
O	     12.28775      8.35694     14.58166         0.019187      0.106578     -0.060023
O	      4.11280      1.98716      4.21983        -0.037542     -0.054310      0.032898
O	     14.36477      8.33595     16.76175        -0.000088      0.340046      0.029948
O	      6.15946      1.96364      6.29934         0.099246     -0.007647      0.013307
O	      8.19506      8.22694     10.46452         0.043236     -0.076840      0.052361
O	      8.22957      2.08584      8.31191        -0.021389      0.049075     -0.126340
O	     10.26004      8.23218     12.61219        -0.000321      0.024492     -0.039764
O	      2.05554      4.06173      4.26545         0.003229     -0.069957      0.092139
O	     12.35282      6.21936     12.50666         0.075667      0.020771     -0.051585
O	      4.11841      4.10404      6.35137        -0.028695     -0.044081      0.069319
O	     14.35620      6.14980     14.57546         0.005238     -0.023059     -0.335586
O	      6.15178      4.11463      8.44806        -0.101638     -0.008730      0.019180
O	      8.20934      6.18784      8.43377         0.015282     -0.025378      0.031445
O	      8.16261      4.15964     10.45007        -0.077729      0.037235     -0.028585
O	     10.25844      6.23166     10.43601         0.000936      0.045801     -0.035503
