# total energy = -235.33912730 eV
 
CRYSTAL
PRIMVEC
-0.000094 2.078730 2.078423 
33.033058 -0.585177 33.838775 
12.363784 1.908813 10.561564 
PRIMCOORD
32 1
Li	     33.04937      1.57422     35.83417        -0.006551      0.004695     -0.005069
Li	      4.25527      2.03863      6.27240        -0.017053      0.022480     -0.017415
Li	      8.25916      1.93253     10.53677         0.001623     -0.000523     -0.000155
Li	     24.62746      1.65651     23.28267         0.018215     -0.024558      0.022090
Li	     28.86482      1.53650     27.56175         0.008594     -0.003404      0.001930
Li	     18.59404      1.83457     21.02705        -0.007528      0.014765     -0.014068
Li	     35.02359      1.52778     33.80495         0.006944     -0.023760      0.023898
Li	     26.89031      1.58618     29.59163        -0.005289      0.018722     -0.025656
Li	     43.32151      1.27611     42.36772         0.006493     -0.016167      0.014730
Ti	     14.35639      1.83775     12.70878        -0.069216     -0.014941      0.016186
Ti	     18.45474      1.77548     16.92909        -0.161528     -0.068601      0.067227
Ti	     10.42889      1.91964     12.62678         0.153717      0.070751     -0.070232
Ti	     14.52705      1.85887     16.84572         0.072961      0.009717     -0.013041
Ti	     32.90145      1.52793     31.72594        -0.118306     -0.064074      0.060453
Ti	     37.13696      1.46868     35.94053         0.004266      0.002730     -0.002672
Ti	     29.01346      1.58251     31.66892         0.112530      0.057562     -0.055953
O	     35.09561      1.42571     35.98356         0.043771     -0.015533      0.013041
O	     37.12648      1.48670     38.00070        -0.044041      0.017550     -0.010495
O	      6.25406      1.93013      6.38298         0.023075     -0.016352      0.012173
O	      8.19491      2.02437      8.36462        -0.014261      0.041402     -0.034088
O	     10.31487      1.83314     10.63559         0.004942     -0.061329      0.061718
O	     12.36296      1.85553     12.69115        -0.062757     -0.008466      0.009538
O	     14.44054      1.84759     14.77772        -0.001513      0.001350      0.001202
O	     16.51782      1.83928     16.86446         0.069385      0.008789     -0.007674
O	     18.56747      1.86178     18.92026        -0.007956      0.063867     -0.060810
O	     20.68727      1.67052     21.19160         0.010442     -0.041049      0.035668
O	     22.62797      1.76502     23.17284        -0.024384      0.013764     -0.008039
O	     24.79160      1.62158     25.39626         0.039870     -0.014077      0.005995
O	     26.81681      1.68669     27.40891        -0.040191      0.013139     -0.010294
O	     28.90430      1.49924     29.67523         0.031714     -0.070945      0.070370
O	     30.95755      1.55494     31.69756         0.001300      0.002634     -0.002575
O	     33.01000      1.61081     33.71988        -0.029269      0.079863     -0.077985
