# total energy = -233.83966590 eV
 
CRYSTAL
PRIMVEC
-0.152901 16.962440 16.968789 
4.106710 2.126468 6.319012 
4.106663 4.221503 4.223188 
PRIMCOORD
32 1
Li	      5.95036     21.42410     23.52797        -0.011826     -0.031864     -0.029360
Li	      4.30732      4.21475      8.40774        -0.079821     -0.010025     -0.009130
Li	      6.13668      6.09987      8.19748        -0.004079      0.040548      0.040585
Li	      2.17851      4.29776      6.39437        -0.015165      0.000363     -0.000029
Li	      3.97552     12.75296     12.75840         0.016727      0.006968      0.006893
Li	      5.88601     12.72429     14.82571        -0.014820      0.024627      0.023998
Li	      0.12311     10.55306     10.55704         0.028956     -0.002369     -0.001580
Li	      1.97855     10.57000     12.66891        -0.010394     -0.022443     -0.022086
Li	      3.66132     19.04041     19.04956         0.053693     -0.005807     -0.007746
Ti	      8.13938      6.35044     10.54248        -0.098446      0.078614      0.083094
Ti	      0.15068      4.28927      4.29206         0.148333      0.017812      0.014760
Ti	      8.04143     12.66244     16.85761        -0.356905     -0.002844      0.007421
Ti	      2.04222      6.38827      8.48645         0.016775      0.006237      0.012776
Ti	      8.03294     19.05776     23.25575        -0.057386     -0.058162     -0.057694
Ti	      2.04654     12.76931     14.87049         0.277385     -0.045089     -0.045835
Ti	      6.01901     19.03027     21.13415         0.057818      0.003339      0.000846
O	      6.11602      4.23038      8.42343         0.019573     -0.008462     -0.010158
O	      3.98298     19.12920     21.23083         0.036095      0.028493      0.030719
O	      6.15133      6.43077     10.62433        -0.074443      0.004719      0.004338
O	      4.09075      4.08247      6.17914         0.014100     -0.086794     -0.085840
O	      1.98680      6.44489      6.44770        -0.005793      0.053329      0.036848
O	      4.02955      6.46120      8.56011        -0.037457      0.027348      0.012081
O	      6.18832     10.55013     14.74574         0.005489     -0.062244     -0.043178
O	      4.10985      8.47833     10.57811         0.037889      0.015617      0.009513
O	      6.20784     12.69252     16.88903         0.365182      0.007815      0.007309
O	      4.12118     10.51804     12.61731         0.027619     -0.004857     -0.002108
O	      1.87803     12.79101     12.79695         0.009827      0.046546      0.041255
O	      3.89806     12.72107     14.82180        -0.330336     -0.006785     -0.006239
O	      1.89471     14.82679     14.83254        -0.014591     -0.020084     -0.018936
O	      3.98840     14.86753     16.96860        -0.011213      0.044441      0.043525
O	      1.88427     16.89089     16.89764        -0.034379     -0.034279     -0.034408
O	      4.05198     16.86165     18.96268         0.041594     -0.004703     -0.001635
