# total energy = -235.27183574 eV
 
CRYSTAL
PRIMVEC
-0.000125 2.073070 2.072811 
16.340912 -0.107296 16.688676 
18.456831 4.152811 14.501915 
PRIMCOORD
32 1
Li	     18.43444      4.11040     18.68951        -0.000040      0.000123      0.000555
Li	     20.51369      4.14674     20.72612        -0.005141     -0.001256     -0.000457
Li	     22.51405      4.18039     22.76567         0.008723      0.017627     -0.018764
Li	     24.60557      6.11556     22.90294         0.019986     -0.007282      0.007034
Li	     26.62756      6.17148     24.91949         0.000773      0.000538      0.000876
Li	     10.19293      0.00187     10.36288        -0.018600      0.009196     -0.008867
Li	     12.28426      1.93767     10.50021        -0.014034     -0.019145      0.019676
Li	     14.28314      1.97242     12.53885         0.007298     -0.001191      0.001636
Li	     16.36255      2.00920     14.57419        -0.000296     -0.001167      0.000735
Ti	     34.79623      4.04655     31.19036         0.017771     -0.011045      0.010361
Ti	      2.02017      0.05912      2.01195        -0.037911      0.021209     -0.017690
Ti	      4.21238      2.06937      6.22093         0.082109     -0.018508      0.013566
Ti	     24.45120      2.00357     22.86968        -0.078449      0.032864     -0.032327
Ti	     10.34552      4.11522     10.39546         0.090662     -0.044605      0.042634
Ti	     30.58477      4.04806     27.04516        -0.074535      0.036812     -0.034165
Ti	     32.77711      6.05988     31.25230         0.044293     -0.027376      0.024332
O	     18.44639      1.99795     18.72703        -0.027933     -0.051729      0.053149
O	     20.59019      4.22245     18.57854         0.039980      0.026393     -0.027631
O	     20.44689      1.94899     20.84828        -0.032951     -0.036888      0.039411
O	     22.56091      4.23001     20.64290         0.036154      0.050398     -0.049640
O	      6.16926      2.08666      6.20505         0.021352      0.006986     -0.009555
O	     24.57711      3.99522     22.95038        -0.036117     -0.051921      0.051797
O	      8.24759      2.12921      8.23634         0.007406      0.044133     -0.050036
O	     26.55098      3.98869     25.02978        -0.015835     -0.040001      0.043417
O	     10.22220      2.12295     10.31498         0.024297      0.059545     -0.057481
O	     28.62874      4.03175     27.06021        -0.019863     -0.007627      0.009878
O	     12.23767      1.88845     12.62176        -0.042656     -0.063717      0.065255
O	     14.35168      4.16798     12.41774         0.023936      0.043460     -0.043735
O	     14.20807      1.89632     14.68613        -0.047158     -0.029638      0.029994
O	     16.35246      4.11979     14.53831         0.011595      0.058866     -0.058555
O	     16.33885      1.96847     16.68526        -0.062296     -0.050847      0.055290
O	     18.45820      4.15074     16.57912         0.077481      0.055795     -0.060695
