# total energy = -234.95456342 eV
 
CRYSTAL
PRIMVEC
0.000347 2.081316 2.081033 
16.397465 -0.090203 16.741267 
14.387033 4.168400 10.401799 
PRIMCOORD
32 1
Li	     14.38342      4.10522     10.46507         0.020472     -0.013263      0.015828
Li	     16.30902      4.09423     12.55403        -0.027300      0.000461      0.004028
Li	      4.09987      2.05768      6.26302        -0.001641      0.000285      0.003364
Li	      6.27903      2.11012      8.29468         0.020897      0.001525     -0.000698
Li	      8.15589      2.03281      6.29266         0.008464     -0.021524      0.026381
Li	      8.20307      2.10296     10.38660        -0.019239      0.015080     -0.018505
Li	     10.17870     -0.01914     10.42545        -0.016272      0.021864     -0.018821
Li	     14.43010      4.17576     14.55737        -0.006562      0.020410     -0.024865
Li	     14.41762      1.96874     16.76520         0.018216     -0.021970      0.018212
Ti	     18.49039      4.09455     18.79962         0.016560     -0.005611      0.011564
Ti	     20.49382      2.02230     18.79284        -0.032528      0.011236     -0.014585
Ti	     22.70555      4.06614     22.99270         0.059794     -0.047470      0.048330
Ti	     10.15560      2.09786      8.31056        -0.364188      0.012845     -0.015721
Ti	     12.43001      4.11137     12.54054         0.371333     -0.013879      0.014137
Ti	     12.29781     -0.06546     12.55474         0.005032     -0.001206      0.000188
Ti	     16.27735      2.05122     14.59958        -0.055209      0.042213     -0.044433
O	     18.45149      2.02915     18.78412         0.043934      0.039615     -0.040380
O	     20.53288      4.08829     18.80830        -0.057170     -0.039784      0.039103
O	      4.18627      2.15039      4.09330         0.037245      0.027684     -0.028132
O	     22.54784      4.04366     20.93248         0.026496     -0.033135      0.038159
O	      6.17456      2.16189      6.16428         0.029454      0.077305     -0.082517
O	     24.65066      4.11323     22.94577        -0.034752      0.000993     -0.002895
O	      8.31742      2.06861      8.33880         0.391027      0.011385     -0.009202
O	     26.69763      4.08768     25.05278         0.004790      0.000227      0.006597
O	     10.32176      2.12238     10.36751         0.054152      0.018709     -0.021996
O	     12.26393      4.08672     10.48361        -0.049737     -0.016756      0.018232
O	     12.28504      2.03107     12.53969         0.004989     -0.001080     -0.007867
O	     14.26824      4.13978     12.51210        -0.384974     -0.011787      0.009779
O	     14.33243      2.00474     14.64646         0.046011     -0.000928      0.002694
O	     16.41179      4.04560     14.68618        -0.032380     -0.084614      0.090031
O	     16.43602      2.07370     16.65987        -0.024306      0.037944     -0.043393
O	     18.40049      4.05590     16.75856        -0.052608     -0.026774      0.027383
