# total energy = -30.09651688 eV
 
CRYSTAL
PRIMVEC
0.000421 2.062863 2.061000 
2.059777 -2.063331 0.000889 
4.256633 2.201029 -2.198464 
PRIMCOORD
4 1
Li	      0.00629     -0.00398      0.00049        -0.004732      0.005819     -0.005039
Ti	      4.18940      0.06889     -0.06954        -0.008685     -0.016626      0.005625
O	      4.19458      2.13302     -0.07384        -0.041571     -0.033293      0.044010
O	      2.12384      0.06639     -0.06640         0.054988      0.044100     -0.044597
