# total energy = -30.08836273 eV
 
CRYSTAL
PRIMVEC
0.000003 2.104009 2.104010 
3.989519 0.000007 -0.000005 
0.000004 2.104009 -2.104009 
PRIMCOORD
4 1
Li	      0.00353      0.00236     -0.00068        -0.010611     -0.007605      0.005996
Ti	      1.99584      2.10354      0.00239         0.014842      0.000689     -0.007223
O	      0.00253      2.10225      0.00110        -0.002255      0.009011      0.006842
O	      1.99732      2.10364     -2.10143        -0.001977     -0.002096     -0.005614
