# total energy = -57.94153347 eV
 
CRYSTAL
PRIMVEC
0.000549 2.153504 2.151809 
2.152369 -2.153203 0.000248 
6.948234 6.950703 -4.792612 
PRIMCOORD
8 1
Li	      2.48363      0.32501      1.82729         0.013972      0.014280     -0.014896
Li	      1.95598      1.94861      0.20150        -0.016961     -0.014545      0.014900
Ti	      4.60847      4.59920     -0.29173        -0.102837     -0.101627      0.101933
Ti	      6.78509      4.62286     -2.46813         0.100313      0.101339     -0.102715
O	      4.78377      2.62213     -0.46645         0.088559      0.088161     -0.090047
O	      4.62018      4.61094     -2.45614         0.003160     -0.000196      0.001520
O	      6.60964      6.59988     -2.29334        -0.088217     -0.087183      0.089303
O	      2.21951      0.06007     -0.06144         0.002012     -0.000229      0.000002
