# total energy = -60.14676014 eV
 
CRYSTAL
PRIMVEC
0.000039 2.080813 2.080886 
4.114587 0.000031 0.000046 
-0.000102 4.299000 -4.299506 
PRIMCOORD
8 1
Li	      0.00343      0.13390     -0.13298        -0.000141      0.018752     -0.018189
Li	      2.06024      1.98503      0.09542         0.001077     -0.013640      0.016036
Ti	      0.00246      2.14774     -2.14673         0.001242     -0.054488      0.053590
Ti	      2.06027      4.27206     -2.18962         0.005465      0.043124     -0.044039
O	      0.00281      2.21650     -0.13480        -0.001084      0.018155     -0.016625
O	      2.05953      2.15761     -2.15580         0.003576      0.008403     -0.011882
O	      0.00349      4.26176     -2.18007        -0.007552     -0.003429      0.006653
O	      2.06052      4.20277     -4.20135        -0.002582     -0.016877      0.014457
