# total energy = -60.25929357 eV
 
CRYSTAL
PRIMVEC
0.000172 2.098947 2.098227 
4.127315 -2.124792 2.124412 
2.016184 2.091181 -4.188513 
PRIMCOORD
8 1
Li	      0.11025      0.01664     -0.02002         0.000439      0.020950     -0.020299
Li	      1.93359      2.06989      0.02515        -0.006410     -0.014227      0.023092
Ti	      4.01205      2.04305     -2.04329        -0.062505     -0.076319      0.048066
Ti	      4.17523      0.01321     -0.01462         0.054590      0.069678     -0.043416
O	      4.06570      0.02485      2.07232        -0.037707      0.037183     -0.021166
O	      2.02942      2.09104     -2.09081         0.002160     -0.005371     -0.001129
O	      2.10382     -0.06125      0.05879         0.048186     -0.026103      0.014648
O	      4.09311      2.07774      0.02029         0.001247     -0.005791      0.000204
