# total energy = -59.54595089 eV
 
CRYSTAL
PRIMVEC
-0.000030 2.091636 2.091655 
8.546760 -0.000201 0.000143 
-0.000022 2.091604 -2.091623 
PRIMCOORD
8 1
Li	      0.24489      2.09198      2.09104         0.010892     -0.001508      0.001702
Li	      1.89626      2.09121      0.00004        -0.012514      0.000544      0.000274
Ti	      4.07591      4.18204      0.00084        -0.475603      0.002249     -0.001584
Ti	      6.61198      2.09117      0.00065         0.478601     -0.000468     -0.000537
O	      4.32743      2.09060      0.00071        -0.016924      0.000351      0.000259
O	      6.36108      2.09099     -2.09088         0.014096      0.001103     -0.001746
O	      8.44248      2.09175      0.00003        -0.408710     -0.002837      0.001897
O	      2.24539      4.18248      0.00047         0.410162      0.000566     -0.000266
