# total energy = -60.40697432 eV
 
CRYSTAL
PRIMVEC
4.082023 0.000750 -0.000286 
0.000286 0.000677 -4.082239 
2.041902 4.246869 -2.041952 
PRIMCOORD
8 1
Li	      4.08078      0.00535     -4.08425        -0.001122     -0.013278      0.005157
Li	      2.04252      2.12494     -4.08322        -0.009034     -0.004514      0.000009
Ti	      4.08114      4.24523     -4.08388         0.009674     -0.006642      0.004491
Ti	      4.08175      2.12273     -2.04189        -0.006926     -0.005502     -0.009330
O	      2.04076      2.11278     -2.04176        -0.006901      0.002810     -0.000303
O	      4.08060      4.23633     -2.04270         0.006088      0.009001      0.002380
O	      4.08132      2.13028     -4.08332         0.005284      0.004459     -0.001604
O	      4.08047      0.00635     -2.04203         0.002937      0.013666     -0.000801
