# total energy = -84.10892253 eV
 
CRYSTAL
PRIMVEC
0.000058 2.146083 2.146909 
2.146191 -2.146124 0.000098 
9.199255 9.198752 -9.202051 
PRIMCOORD
12 1
Li	      2.51353      0.36859      1.77312         0.035844      0.035723     -0.037633
Li	      2.24845      2.24914     -0.10660        -0.000479     -0.001047      0.002292
Li	      4.12840      1.98310     -1.98680        -0.034880     -0.034259      0.031499
Ti	      6.81930      4.67954     -2.53113        -0.032489     -0.038644      0.038378
Ti	      6.84520      6.85141     -4.70228         0.004175     -0.000585     -0.000346
Ti	      9.01856      6.87890     -6.87502         0.030800      0.024937     -0.028176
O	      8.99819      4.71178     -6.85495         0.012407      0.017287     -0.014061
O	      4.85312      4.85871     -2.71121         0.059872      0.064688     -0.062493
O	      6.83973      4.69935     -4.69731        -0.016034     -0.013743      0.014861
O	      4.45415      2.30867     -0.16618        -0.018538     -0.018823      0.016655
O	      8.83858      8.84432     -6.69422        -0.056269     -0.051302      0.057010
O	      2.18792      0.04317     -0.04743         0.015592      0.015769     -0.017986
