# total energy = -88.46740314 eV
 
CRYSTAL
PRIMVEC
0.000033 2.164335 2.163776 
4.038583 -0.000019 0.000063 
0.000104 6.855162 -6.853930 
PRIMCOORD
12 1
Li	      4.03645      2.48667      1.82543         0.000390     -0.037515      0.003556
Li	      2.01729      2.23094     -0.05886        -0.001782     -0.000983     -0.000469
Li	      4.03669      4.11284      0.19888        -0.000768      0.000272     -0.036921
Ti	      2.01778      4.41658     -2.40888        -0.005489     -0.180798      0.101217
Ti	      4.03669      4.67908     -4.46192        -0.006137      0.038722      0.044851
Ti	      2.01777      6.73275     -4.72151        -0.005521      0.102943     -0.194292
O	      4.03662      4.71965     -2.39397         0.003088     -0.010451     -0.039208
O	      2.01704      6.67405     -2.46654         0.006742     -0.061291     -0.059957
O	      4.03659      2.22112     -0.06600         0.001898     -0.016595     -0.016835
O	      2.01742      4.72439     -0.41885         0.001900      0.273079     -0.070028
O	      4.03659      6.74695     -4.42201         0.004253     -0.039505     -0.002787
O	      2.01748      8.72162     -4.41429         0.001425     -0.067878      0.270873
