# total energy = -90.29647242 eV
 
CRYSTAL
PRIMVEC
-0.000014 2.079378 2.079100 
4.061329 4.190186 -4.189685 
-4.173866 2.150800 -2.150530 
PRIMCOORD
12 1
Li	     -4.05658      4.24698     -0.09394        -0.013131      0.015538     -0.013375
Li	     -2.12565      4.23147     -2.15558         0.002922      0.001164     -0.002284
Li	     -0.18876      6.29097     -2.13406         0.013265     -0.019483      0.015662
Ti	      1.89859      6.27669     -4.20187        -0.117263     -0.097864      0.100092
Ti	     -0.04352      4.19102     -0.03625         0.003269      0.000868     -0.003699
Ti	      2.09725      4.22456     -2.14985         0.109252      0.102256     -0.097013
O	     -0.00388      4.17110     -2.09591         0.043405     -0.000609      0.000987
O	     -0.06186      2.13350     -0.05818        -0.050533      0.001253     -0.002730
O	      2.00239      4.21830     -0.06375        -0.120821      0.016581     -0.018964
O	     -0.09561      6.32451     -4.24892         0.001886      0.000370     -0.003221
O	     -2.08294      4.17461     -0.02140         0.128688     -0.019180      0.019447
O	      1.99296      6.28903     -2.13500        -0.000938     -0.000893      0.005100
