# total energy = -87.13036268 eV
 
CRYSTAL
PRIMVEC
0.000020 2.076737 2.076779 
13.800383 -0.001193 0.000508 
-0.000061 2.076741 -2.076784 
PRIMCOORD
12 1
Li	      0.47851      4.14945     -0.00333         0.011444      0.001008      0.000231
Li	      2.29940      2.07380     -0.00381         0.002040     -0.000714     -0.001398
Li	      4.12091      2.07506      2.07239        -0.011367     -0.000432      0.000590
Ti	      6.65172      2.07403     -0.00463        -0.985522      0.000083     -0.000668
Ti	      9.20018      2.07417      2.07186        -0.000876      0.003161      0.001784
Ti	     11.74852      2.07408     -0.00492         0.969948      0.000232     -0.000799
O	      9.19998      2.07446     -0.00491         0.000367     -0.002093     -0.000536
O	     11.35767      2.07416      2.07161        -0.028080     -0.000911      0.002374
O	      4.89949      2.07366     -0.00497         0.970738     -0.000123     -0.001170
O	      7.04263      2.07403      2.07195         0.028745     -0.000524      0.001928
O	     13.50025      2.07370     -0.00527        -0.955890     -0.000257     -0.001489
O	      2.29974      2.07373      2.07272        -0.001546      0.000571     -0.000846
