# total energy = -90.34521553 eV
 
CRYSTAL
PRIMVEC
4.143491 -0.000536 0.000402 
-0.000838 4.268609 -4.174356 
-2.072054 4.203236 2.021471 
PRIMCOORD
12 1
Li	      2.07233      4.26103      1.85514         0.000438     -0.010285      0.004684
Li	      2.07241      2.11720     -0.02508         0.001152     -0.000899     -0.000247
Li	      0.00032      4.17062      0.11735         0.001145      0.007519     -0.006992
Ti	      0.00110      2.15968     -2.04169        -0.008900      0.007094     -0.018078
Ti	      2.07167      4.24880     -2.11279         0.001614     -0.005818      0.007191
Ti	     -0.00073      6.33673     -2.18340         0.011297     -0.014733      0.021501
O	      0.00095      2.11399     -0.02517        -0.005327      0.003680      0.000748
O	      2.07250      4.36686     -0.12943        -0.002846      0.026863     -0.110831
O	      0.00001      4.24797     -2.11210        -0.002417      0.006068     -0.002810
O	      2.07135      6.35571     -2.16955         0.004524      0.015573      0.014584
O	      2.07262      2.14089     -2.05520        -0.004142     -0.013574     -0.012016
O	     -0.00060      8.33191     -2.07283         0.003460     -0.021488      0.102264
