# total energy = -90.47027261 eV
 
CRYSTAL
PRIMVEC
2.039267 4.206835 2.039263 
4.120640 -2.126783 -2.034024 
2.034030 2.126817 -4.120547 
PRIMCOORD
12 1
Li	      0.05445      0.00155     -0.05186         0.013057     -0.004588     -0.013941
Li	      2.04733      2.10212     -0.00644         0.003559      0.003191      0.002116
Li	      2.00246      0.00033     -1.99958        -0.015964     -0.002078      0.012088
Ti	      4.06150      2.10295     -2.01926        -0.038121      0.009829      0.041153
Ti	      4.10539      0.00029     -4.10287        -0.002247      0.000350     -0.006197
Ti	      6.18914      2.10322     -4.14717         0.043467      0.007928     -0.033514
O	      4.11157     -0.00301     -2.05874         0.006168      0.006667     -0.003863
O	      6.11675      2.10725     -2.09189        -0.015975      0.024995     -0.018594
O	      4.13397      2.10008     -4.07434         0.016730     -0.025618      0.011238
O	      4.10470      2.08345      0.01288        -0.008792     -0.017487      0.005737
O	      2.02897      2.12377     -2.06284        -0.004519      0.012828      0.008838
O	      4.10070      4.21034     -2.06984         0.002636     -0.016017     -0.005062
