# total energy = -90.33009754 eV
 
CRYSTAL
PRIMVEC
2.090487 -2.089997 0.000066 
2.124701 2.124304 -4.079445 
6.324534 4.232972 2.006462 
PRIMCOORD
12 1
Li	      6.31120      4.21284      1.93671        -0.007645     -0.012771     -0.003049
Li	      4.20840      0.02083     -0.00920         0.000008     -0.000600      0.003495
Li	      6.34010      2.15028      0.05259         0.008526      0.012053      0.001720
Ti	      2.13969      0.04180     -1.94732         0.066134      0.067178      0.057723
Ti	      4.22553      2.12747     -2.04836        -0.000356      0.000780     -0.000071
Ti	      6.31091      4.21311     -2.14885        -0.063992     -0.067966     -0.065721
O	      2.10286      0.00595      0.00500         0.017227      0.012691     -0.068111
O	      4.22292      2.12457     -0.02232        -0.016873     -0.014746      0.071862
O	      6.38655      4.28741     -0.07847         0.012006      0.011587     -0.056523
O	      6.32033      2.13181     -2.04885         0.036789      0.041159     -0.006549
O	      8.38887      4.20012     -2.01163        -0.012884     -0.008665      0.060580
O	      4.22085      0.03311     -2.04777        -0.038940     -0.040698      0.004645
