# total energy = -90.51258806 eV
 
CRYSTAL
PRIMVEC
4.122932 -0.000196 -0.000036 
0.000037 -0.000642 -4.065039 
-0.000304 6.311487 -2.031510 
PRIMCOORD
12 1
Li	      0.00283      0.03638     -4.06325        -0.001553      0.001682     -0.008743
Li	      2.06553      2.10556     -4.06491        -0.007431     -0.002667      0.005704
Li	      0.00215      4.17410     -4.06374         0.002267      0.003675      0.000553
Ti	      2.06366      6.29208     -4.06397         0.001619     -0.020963      0.000488
Ti	      0.00209      2.10658     -2.03235        -0.000979     -0.006098      0.005332
Ti	      2.06455      4.23022     -2.03117        -0.003314      0.020734      0.000631
O	      2.06323      2.10543     -2.03048         0.004579     -0.000073     -0.008719
O	      2.06393      6.30449     -2.03158        -0.000860      0.021538      0.004952
O	      0.00330      4.19471     -2.03200        -0.005743     -0.034329      0.006006
O	      0.00120      2.10634     -4.06320         0.009409     -0.005302     -0.006249
O	      2.06419      4.21750     -4.06371        -0.001020     -0.009672     -0.002049
O	      0.00238      0.01727     -2.03260         0.003027      0.031475      0.002093
