# total energy = -87.94101295 eV
 
CRYSTAL
PRIMVEC
-0.000216 2.126153 2.126774 
2.125746 -2.126643 0.000275 
8.967476 8.971704 -8.974991 
PRIMCOORD
12 1
Li	      0.28258      0.27446     -0.27506         0.004175      0.005217     -0.006234
Li	      1.92879      1.92008      0.20576        -0.008140     -0.005704      0.006804
Li	      6.64292      4.51990     -2.39588         0.003336      0.003863     -0.004926
Ti	      4.50311      2.38011     -2.38370        -0.068202     -0.069185      0.069865
Ti	      6.65208      6.65707     -4.53429         0.092040      0.089408     -0.088729
Ti	      8.78093      6.65907     -6.66307        -0.002096     -0.003807      0.004723
O	      8.77663      6.65515     -4.53247        -0.016607     -0.018328      0.019552
O	      4.47555      4.47906     -2.35526        -0.047679     -0.047001      0.044045
O	      6.69257      4.57145     -4.57512         0.012414      0.014391     -0.017409
O	      4.64474      2.52303     -0.40022         0.109577      0.110533     -0.109519
O	      8.63855      8.64250     -6.51971        -0.077751     -0.078867      0.081138
O	      2.16979      0.03547     -0.03606        -0.001066     -0.000522      0.000690
