# total energy = -92.75219363 eV
 
CRYSTAL
PRIMVEC
2.025623 4.096266 2.025580 
4.136910 -4.133527 -0.011415 
4.148341 0.000010 -4.148313 
PRIMCOORD
16 1
Li	      2.12717      0.00154     -2.12518         0.002781      0.000960     -0.002896
Li	      8.21158     -2.08316     -2.05879        -0.007325      0.000468      0.007464
Li	      8.25628      1.99499     -2.13165         0.008964     -0.002053     -0.010921
Li	      4.14840     -2.02820     -2.09264         0.010757      0.002426     -0.006903
Mn	      8.23681     -4.13125     -4.10975        -0.008792     -0.000860      0.009372
Mn	      6.22038     -2.08321     -0.06764         0.049820     -0.000938     -0.051505
Ni	      4.07678     -0.03494     -0.06442        -0.027344     -0.049174     -0.049091
Ni	      6.22865      0.00214     -2.06100         0.048455      0.049173      0.027190
O	      6.13355     -0.14104      0.02355         0.096610     -0.037339      0.121585
O	      6.19360     -2.01491     -1.94262        -0.011908     -0.125110      0.070423
O	      3.95840      1.98222     -0.02917        -0.071571      0.122769      0.009745
O	      4.16979     -0.01418     -2.18729        -0.096668      0.000705     -0.100385
O	      8.35132     -0.01856     -2.15382         0.103017     -0.001201      0.096449
O	      4.21960     -2.17290     -0.04308         0.019332     -0.054597     -0.005137
O	      6.20708      2.13996     -2.20370         0.004814      0.056490     -0.019328
O	      1.99222      0.10816      0.03047        -0.120944      0.038282     -0.096063
