# total energy = -90.17775418 eV
 
CRYSTAL
PRIMVEC
-0.000012 2.095234 2.096075 
4.076969 -0.000209 0.000184 
-0.000331 6.358857 -6.361335 
PRIMCOORD
12 1
Li	      0.00242      0.12256     -0.12099         0.002262      0.013117     -0.013966
Li	      2.04240      2.09093      0.00156         0.001464     -0.026479      0.027258
Li	      2.04319      4.12636     -2.03191        -0.000566      0.026983     -0.023096
Ti	      0.00530      2.12432     -2.12442        -0.003026     -0.076532      0.074793
Ti	      0.00319      4.23042     -4.23054        -0.000424     -0.021674      0.024337
Ti	      2.04076      6.35100     -4.25213         0.000425      0.102978     -0.102347
O	      0.00408      4.21903     -2.12265        -0.003020     -0.013626      0.008656
O	      2.04156      4.21568     -4.21290         0.002202     -0.017850      0.011696
O	      0.00405      2.21813     -0.12363        -0.003189      0.067732     -0.061829
O	      2.04227      2.14155     -2.14178        -0.000881     -0.020785      0.017858
O	      0.00215      6.34871     -4.25240         0.004734      0.025915     -0.026355
O	      2.04123      6.24097     -6.23943         0.000020     -0.059780      0.062996
