# total energy = -89.99024311 eV
 
CRYSTAL
PRIMVEC
-0.000075 2.092506 2.092524 
6.194256 2.092835 -0.000547 
-0.012509 4.223377 -4.223415 
PRIMCOORD
12 1
Li	      0.09437      2.16647      2.01640        -0.002300      0.015098     -0.012833
Li	      1.88015      2.10686     -0.01055        -0.005781     -0.002320     -0.003124
Li	      0.08154      4.12658      0.05853        -0.024290     -0.011633      0.010059
Ti	      4.22944      4.15490      0.02919         0.263290      0.096860     -0.095582
Ti	      1.92570      4.21958     -2.12869        -0.083760      0.013921     -0.001914
Ti	      4.20695      6.32416     -2.14165         0.067545     -0.096658      0.095573
O	      6.09329      4.19360     -0.00944        -0.298679     -0.008765      0.007958
O	      2.11472      4.25449     -0.07042        -0.009855      0.020652     -0.031346
O	      4.10476      4.19801     -2.10722         0.013723     -0.009330     -0.002037
O	      6.18230      6.31399     -2.13147         0.045187      0.002074      0.004233
O	      2.11262      6.27831     -2.09452         0.013947     -0.027516      0.036396
O	      4.11206      2.08936      0.00168         0.020975      0.007616     -0.007382
