# total energy = -89.97309562 eV
 
CRYSTAL
PRIMVEC
0.000037 2.088409 2.088103 
4.263610 4.273979 -4.273477 
-4.147141 2.078793 -2.078548 
PRIMCOORD
12 1
Li	     -4.01905      4.21323     -0.04034         0.023253     -0.001277      0.007490
Li	     -2.17728      4.09225     -2.00288        -0.002627     -0.009395      0.009712
Li	     -2.05444      2.13124     -0.04145         0.000718     -0.010156      0.008764
Ti	      0.05007      4.23050     -4.22883         0.004628      0.107447     -0.108294
Ti	     -0.08775      2.10244     -2.10048        -0.307664     -0.096198      0.094200
Ti	      2.21325      4.24213     -2.15267         0.065746      0.064562     -0.064788
O	      0.04985      4.20885     -2.11879        -0.015751     -0.012785      0.011349
O	      0.04101      2.18848     -0.09838        -0.012868      0.121315     -0.123041
O	      2.10834      2.15936     -2.15787        -0.031604      0.000478     -0.000760
O	      0.10114      6.30534     -4.21558        -0.017964     -0.079784      0.079044
O	     -1.93538      2.11218     -2.11077         0.329901      0.004577     -0.004138
O	      2.12485      4.19615     -4.19522        -0.035768     -0.088783      0.090459
