# total energy = -89.56024709 eV
 
CRYSTAL
PRIMVEC
-0.000085 2.099339 2.099329 
12.474362 -0.000095 -0.000444 
0.000077 2.099350 -2.099340 
PRIMCOORD
12 1
Li	      0.29079      0.00208      0.00123         0.038502     -0.002318      0.000870
Li	      1.98520      2.09966      0.00045        -0.014821     -0.000861      0.001000
Li	      6.14409      2.09653      0.00091         0.004496      0.002544      0.000598
Ti	      4.08284      4.19712      0.00049        -0.390438      0.001392      0.001367
Ti	      8.12650      2.09793     -2.09775        -0.108191     -0.000057      0.000563
Ti	     10.57532      2.09987      0.00193         0.455299     -0.000304      0.000151
O	      8.27418      2.09791      0.00165        -0.085064      0.002518     -0.001561
O	     10.33662      2.09979     -2.09731         0.054814     -0.001416     -0.002392
O	      4.18931      2.09793      0.00056         0.006975     -0.001326      0.002104
O	      6.19651      4.19664      0.00104         0.079766      0.003750     -0.000425
O	     12.39224      2.10055      0.00166        -0.456749     -0.004048     -0.002862
O	      2.25211      2.09874     -2.09873         0.415409      0.000127      0.000588
