# total energy = -90.53374221 eV
 
CRYSTAL
PRIMVEC
4.097052 -0.000615 -0.001093 
0.000467 4.140278 -4.138594 
-2.049628 4.186517 2.115715 
PRIMCOORD
12 1
Li	      0.00266      0.07137     -0.05746        -0.001799      0.012210      0.005228
Li	      2.05044      2.05036     -0.01949        -0.001636     -0.004600      0.011670
Li	      0.00234      2.04920     -1.96401         0.001048      0.005825      0.018563
Ti	      0.00142      4.17747      0.03357         0.002091     -0.028012     -0.057413
Ti	      2.05143      4.14543     -2.07540        -0.014852      0.089533      0.071242
Ti	      0.00167      6.23555     -2.05455         0.007616     -0.068527     -0.061468
O	      0.00153      2.17419      0.08435        -0.001684      0.072980      0.075175
O	      2.04965      4.19618      0.01773         0.008036     -0.024440      0.019195
O	      0.00276      4.11414     -2.09399        -0.002736     -0.031773     -0.020793
O	      2.05008      6.21896     -2.03379         0.003378      0.020148     -0.018942
O	      0.00142      6.24061      0.01726         0.001472     -0.012287     -0.039331
O	      0.00159      8.31066     -2.02597        -0.000933     -0.031058     -0.003125
