# total energy = -90.40536120 eV
 
CRYSTAL
PRIMVEC
2.072097 4.105923 2.071876 
4.187097 -2.055186 -2.110187 
2.110319 2.055615 -4.187266 
PRIMCOORD
12 1
Li	      2.10501      4.10475      2.03953         0.015464      0.006259     -0.010438
Li	      2.05441      2.05462      0.02156        -0.019404     -0.003807      0.017491
Li	      4.19865      2.05495     -2.12256         0.005504     -0.004029     -0.011300
Ti	      2.11937      0.00154     -2.11614         0.045234     -0.006123     -0.040917
Ti	      4.13857      0.00087     -4.13486        -0.129429      0.003368      0.127107
Ti	      6.30662      2.05341     -4.23218         0.061866      0.005270     -0.066256
O	      4.19267      0.00116     -2.10218        -0.007703     -0.004422     -0.009506
O	      6.29212      2.07432     -2.15500         0.003442      0.060223     -0.005358
O	      4.22944      2.03346     -4.21766         0.010405     -0.061507     -0.000808
O	      4.18194      2.05758      0.01415         0.032207      0.001869      0.029501
O	      2.06159      2.05002     -2.10677        -0.030245     -0.003326     -0.033973
O	      4.17720      4.10630     -2.11709         0.012658      0.006226      0.004456
