# total energy = -89.96449041 eV
 
CRYSTAL
PRIMVEC
2.088752 -2.088441 0.000162 
2.079436 2.079448 -4.139976 
6.363827 4.274261 2.190387 
PRIMCOORD
12 1
Li	      4.21904      0.04438     -4.09597        -0.003772     -0.003666     -0.009040
Li	      4.09372     -0.08186     -0.10235        -0.009370     -0.012460      0.002831
Li	      2.12866      0.03809     -1.97164        -0.011475     -0.007664      0.005420
Ti	      6.32841      2.15505      0.13768         0.071331      0.066802      0.047647
Ti	      4.18724      2.10064     -2.15096        -0.075470     -0.073263     -0.295517
Ti	      6.31345      4.22799     -2.00701         0.097569      0.094463      0.024332
O	      2.11477      0.02800      0.13890        -0.000083      0.003506      0.324341
O	      4.24491      2.15977      0.04355        -0.003965      0.000503     -0.025155
O	      6.29322      4.20866      0.07120        -0.082308     -0.086229     -0.027970
O	      6.29444      2.11982     -2.02055        -0.010503     -0.013308     -0.032337
O	      8.37784      4.20361     -1.97091        -0.084563     -0.082833     -0.003650
O	      4.27506      0.10002     -2.02440         0.112611      0.114150     -0.010901
