# total energy = -89.98283422 eV
 
CRYSTAL
PRIMVEC
4.159189 0.000140 -0.000016 
0.000017 0.000266 -4.167664 
0.000228 6.190009 -2.084189 
PRIMCOORD
12 1
Li	      4.15896      0.09351     -4.17072        -0.000535     -0.034384      0.004587
Li	      2.07914      1.82442     -4.16944         0.001848     -0.004931     -0.002774
Li	      2.07922      0.07227     -2.08537         0.000992     -0.026227     -0.000443
Ti	      4.15925      4.20935     -4.17019        -0.000558      0.088227      0.020576
Ti	      0.00035      2.01014     -2.08588        -0.005557      0.079299     -0.008813
Ti	      2.07972      4.22366     -2.08579        -0.003450      0.235920      0.007476
O	      2.07984      2.08030     -2.08637        -0.002997     -0.049786      0.005565
O	      2.07911      6.06814     -2.08618         0.002868     -0.296700      0.001326
O	      4.15906      4.16961     -2.08610         0.002435      0.066549     -0.005661
O	      4.15853      2.09919     -4.17036         0.005628     -0.072243     -0.015899
O	      2.07962      4.11449     -4.16967        -0.000121      0.046298     -0.003786
O	      4.15940      6.18917     -4.17059        -0.000552     -0.032021     -0.002153
