# total energy = -110.50364112 eV
 
CRYSTAL
PRIMVEC
0.000614 2.158757 2.156719 
2.157251 -2.158424 0.000280 
10.760222 12.926110 0.029038 
PRIMCOORD
16 1
Li	      0.46454      2.62671      1.69547         0.045839      0.038734     -0.043913
Li	      2.25012      2.25246     -0.09015         0.007492      0.007803     -0.006492
Li	      4.21532      2.05597     -2.05432        -0.012968     -0.007542      0.012456
Li	      3.84375      5.99892     -1.68305        -0.043645     -0.040502      0.043270
Ti	      6.47508      6.47834     -4.31299        -0.054936     -0.059047      0.055583
Ti	      8.58067      6.42483     -6.41911        -0.030311     -0.034233      0.029883
Ti	      8.64347     10.80220     -6.48288         0.034277      0.034605     -0.034350
Ti	     10.74991     10.74961     -8.59024         0.046603      0.047332     -0.045161
O	     10.76221      8.60454     -8.60192         0.020438      0.020344     -0.019744
O	      6.46224      8.62258     -4.30047        -0.018159     -0.018148      0.018345
O	      8.61204      8.61308     -6.45092         0.000610      0.004930     -0.000448
O	      6.65391      4.49923     -4.49134         0.080616      0.083156     -0.082339
O	      2.15439      4.31271      0.00594        -0.000414      0.000568     -0.000585
O	      4.18988      4.18759     -2.02873        -0.016631     -0.017544      0.016185
O	     10.57053     12.72778     -8.41109        -0.077769     -0.082210      0.076743
O	      2.27404      0.11965     -0.11431         0.018959      0.021756     -0.019432
