# total energy = -120.39374460 eV
 
CRYSTAL
PRIMVEC
0.000082 2.074412 2.073485 
6.083159 6.254309 -4.177732 
-4.193592 2.169233 -2.168323 
PRIMCOORD
16 1
Li	     -4.07486      4.26644     -0.12097        -0.006598      0.022961     -0.023983
Li	     -2.13626      4.23424     -2.16286         0.014775      0.018303     -0.016184
Li	     -0.10893      6.31200     -2.16457        -0.017052     -0.018470      0.019743
Li	      1.82650      6.28124     -4.20614         0.006662     -0.023416      0.024413
Ti	      3.91409      8.35329     -4.20378        -0.055208     -0.006680      0.022638
Ti	     -0.01394      4.21272     -0.06389         0.082573      0.012345     -0.004837
Ti	      1.96084      4.16523     -2.09312        -0.087627     -0.015063     -0.003484
Ti	      4.11290      6.27903     -2.13161         0.059753      0.012876     -0.027329
O	      2.03542      6.23998     -2.09295         0.109076      0.038235     -0.021473
O	      2.03868      4.18094     -0.03659        -0.102843      0.012494     -0.011741
O	     -0.14861      6.38240     -4.30866        -0.085739      0.054960     -0.054798
O	      1.91721      8.40136     -4.25230         0.002538     -0.001058      0.001824
O	     -2.09866      4.16485     -0.01727         0.086098     -0.056386      0.053238
O	     -0.09187      4.19640     -2.12112         0.101595     -0.011386      0.017486
O	      4.01374      6.27939     -4.20474        -0.000814     -0.002866      0.001800
O	     -0.09070      2.13794     -0.06493        -0.107187     -0.036849      0.022686
