# total energy = -118.36386338 eV
 
CRYSTAL
PRIMVEC
-0.000222 2.068794 2.068615 
9.143041 -4.428056 4.426335 
2.080582 2.078784 -4.147467 
PRIMCOORD
16 1
Li	      0.39815     -0.07305      0.07620        -0.038477     -0.011971      0.014868
Li	      2.36433      1.84244      0.22840         0.022555      0.031570     -0.035309
Li	      2.10109      0.12755      1.94318        -0.021683     -0.032374      0.034098
Li	      4.06749     -0.02566      0.02703         0.035103      0.015924     -0.014910
Ti	      6.38710      1.95812      0.11158        -0.779372      0.018261     -0.014849
Ti	      6.84571     -0.11922      2.19022        -0.146061     -0.017484      0.009531
Ti	      8.84337     -0.25988      0.26090         0.140594      0.017590     -0.013304
Ti	      9.30185     -2.33696      2.33888         0.759420     -0.023672      0.019751
O	      8.83974     -2.22423      4.29428        -0.029044      0.085017     -0.083983
O	      4.76828     -0.23379      2.30387         0.027921     -0.082979      0.081762
O	      6.71312     -0.08660      0.08819         0.046962      0.023664     -0.022148
O	      6.80382     -2.26340      2.26494         0.004106     -0.002828      0.000598
O	      8.97616     -0.29256      2.36248        -0.047126     -0.017209      0.024349
O	      1.92202      2.09676     -2.09375        -0.745630      0.010496     -0.008416
O	      2.23257     -0.04946      0.05150         0.004769     -0.003272      0.001005
O	      4.62304      1.95210      0.11777         0.765962     -0.010731      0.006958
