# total energy = -114.14952264 eV
 
CRYSTAL
PRIMVEC
0.000005 2.072282 -2.072267 
0.000015 2.072320 2.072304 
18.564356 0.000214 -0.001862 
PRIMCOORD
16 1
Li	      0.48850      2.07338      2.07073        -0.088302     -0.001670      0.000900
Li	      2.68347      2.07338      0.00052         0.012336     -0.000013     -0.000163
Li	      4.27526      0.00121      0.00062         0.011317      0.000325      0.000390
Li	      6.47229      2.07445      0.00083         0.068336      0.000275      0.000289
Ti	      9.12774      0.00071     -0.00082        -1.185758     -0.000527     -0.000286
Ti	     11.82688      2.07295     -0.00085        -0.179508     -0.001365     -0.000420
Ti	     13.70275      2.07267     -2.07317         0.174190      0.000667      0.001194
Ti	     16.39917      2.07279     -0.00051         1.202541     -0.000325     -0.000356
O	     14.03398      2.07278     -0.00077        -0.402357     -0.001059     -0.001149
O	     15.96331      2.07279     -2.07279        -0.162357     -0.000926     -0.001455
O	      9.56457      2.07299     -0.00081         0.152647      0.001155      0.000002
O	     11.49533      0.00058     -0.00090         0.398815      0.001175      0.000201
O	      4.67355      2.07352      0.00068        -0.035279      0.000939      0.000499
O	      7.39301      0.00066     -0.00086         1.017236      0.001317     -0.000486
O	     18.13427      2.07283      0.00002        -1.025921     -0.000328      0.000901
O	      2.28646      0.00124      0.00093         0.042064      0.000360     -0.000061
