# total energy = -119.74090125 eV
 
CRYSTAL
PRIMVEC
4.149716 -0.000402 0.000556 
2.073726 4.304047 -6.439788 
-2.074973 4.178147 2.062876 
PRIMCOORD
16 1
Li	      2.07220      4.25542      1.80663         0.001255      0.012858     -0.020343
Li	      2.07295      2.11988     -0.13496        -0.000606     -0.004202     -0.005210
Li	     -0.00227      4.19192      0.04340        -0.003251     -0.003289      0.007475
Li	      4.14769      2.05294     -1.89736         0.000405     -0.008711      0.021030
Ti	      2.07245      4.21620     -2.02870         0.002586     -0.024972      0.323662
Ti	     -0.00060      6.37421     -2.19562        -0.004394      0.104133      0.116942
Ti	      4.14522      4.23848     -4.33560         0.002963     -0.099852     -0.121012
Ti	      2.07131      6.39669     -4.50269         0.002469      0.028805     -0.330453
O	     -0.00173      4.26002     -2.18680        -0.004582     -0.024207      0.018600
O	     -0.00230      2.05970      0.08964        -0.000908     -0.000764      0.322805
O	      2.07351      6.31935     -2.25159         0.014534     -0.068206      0.009495
O	      2.07281      4.24940     -0.18148        -0.000108     -0.000429     -0.317330
O	      2.07109      4.29369     -4.27979        -0.018013      0.066999     -0.010631
O	      4.14587      6.35288     -4.34473         0.007018      0.024155     -0.016190
O	      2.07298      2.27117     -2.24055        -0.003279      0.094184     -0.059045
O	      2.07138      8.34179     -4.29058         0.003911     -0.096503      0.060205
