# total energy = -120.47274868 eV
 
CRYSTAL
PRIMVEC
2.072674 4.198194 2.033688 
4.161779 -2.101283 -2.046132 
-0.013796 4.261153 -4.179220 
PRIMCOORD
16 1
Li	      2.06898      4.24707      1.83906         0.006370     -0.007724     -0.003384
Li	      2.10811      2.14502     -0.08197         0.000954     -0.007442      0.004827
Li	      4.11760      4.17848      0.02613        -0.002489      0.006432     -0.002551
Li	      4.15564      2.07657     -1.89454        -0.005749      0.006966      0.004011
Ti	      4.12910      0.08432     -4.07268        -0.002106      0.013325      0.056852
Ti	      2.02636      4.25463     -2.08686        -0.059093     -0.054950      0.052661
Ti	      2.11184      2.13182     -4.18167         0.059524      0.058068     -0.054331
Ti	      4.17220      4.20016     -4.24194        -0.000380     -0.006675     -0.058379
O	      2.05117      2.19060     -2.11708        -0.014963      0.041417     -0.035607
O	      4.10107      4.21905     -2.10416        -0.039844      0.036989      0.002793
O	      2.08776      4.19546     -4.15122         0.014948     -0.041593      0.032538
O	      4.16781      1.97142      0.06437        -0.001828     -0.042154      0.095810
O	      4.15714      0.01182     -2.06759         0.001703     -0.000961     -0.001115
O	      2.05747      4.35168     -0.12004         0.001834      0.042942     -0.091036
O	      4.15008      2.14248     -4.15730        -0.000369     -0.003517      0.000685
O	      2.11047      6.36603     -2.13086         0.041486     -0.041123     -0.003774
