# total energy = -114.12455695 eV
 
CRYSTAL
PRIMVEC
-0.000229 2.115164 2.114810 
2.114262 -2.115328 -0.000066 
11.212997 13.333996 0.027969 
PRIMCOORD
16 1
Li	      0.30825      2.42428      1.80243         0.012586      0.014107     -0.012314
Li	      2.20524      2.20386     -0.09237         0.010844      0.013565     -0.011049
Li	      4.08935      1.97142     -1.97485        -0.030112     -0.028290      0.027354
Li	      6.70168      6.70598     -4.58768         0.012563      0.012203     -0.013252
Ti	      4.56251      6.68090     -2.44801        -0.032799     -0.031839      0.031004
Ti	      8.83994      6.73065     -6.72703         0.043069      0.042029     -0.040776
Ti	      8.88805     11.00801     -6.77339         0.031346      0.027527     -0.031335
Ti	     11.05507     11.05758     -8.93916         0.043509      0.048506     -0.045999
O	     11.02384      8.91275     -8.90883        -0.026451     -0.028045      0.027968
O	      6.76072      8.88203     -4.64798         0.012325      0.015578     -0.010961
O	      8.86526      8.87051     -6.75134        -0.062221     -0.064584      0.061241
O	      6.66045      4.54925     -4.54604        -0.087374     -0.087097      0.083336
O	      2.26157      4.37512     -0.14790         0.020681      0.019259     -0.018601
O	      4.70081      4.70587     -2.58781         0.133393      0.133396     -0.128753
O	     10.91702     13.03492     -8.80086        -0.066873     -0.073092      0.067880
O	      2.14254      0.02751     -0.03109        -0.014485     -0.013222      0.014257
