# total energy = -118.25775271 eV
 
CRYSTAL
PRIMVEC
-0.000040 2.125904 2.129201 
4.056231 0.000246 -0.000319 
0.001088 8.966140 -8.979681 
PRIMCOORD
16 1
Li	      0.01267      2.50330      1.74646        -0.003779      0.000241     -0.005296
Li	      2.03534      2.30898     -0.18127         0.000796      0.017181     -0.018210
Li	      4.04241      2.02414     -2.02716        -0.002344      0.020811     -0.020700
Li	      4.04482      6.51737     -2.27136        -0.003670      0.019751     -0.020557
Ti	      1.91322      4.46702     -2.34539        -0.198112     -0.135677      0.135095
Ti	      2.03695      6.63675     -4.52432        -0.000292      0.130988     -0.140050
Ti	      0.01108      6.58947     -6.58246         0.004828     -0.043460      0.095512
Ti	      2.03379      8.89673     -6.80830        -0.002805     -0.092652      0.027190
O	      0.00845      6.59810     -4.47045        -0.009349      0.042317     -0.035773
O	      2.03942      8.81687     -4.58239         0.007281      0.095802     -0.119261
O	      0.05706      4.57462     -2.45601         0.232699     -0.020039      0.020459
O	      2.04206      6.63239     -2.38593        -0.015009     -0.066026      0.075898
O	      0.00710      2.22622     -0.10254         0.002641     -0.001211     -0.002121
O	      2.04397      4.66750     -0.42105        -0.017333      0.152892     -0.155150
O	      0.00713      8.69270     -6.55755         0.004475      0.000490      0.010903
O	      2.03454     10.79597     -6.55974        -0.000027     -0.121407      0.152061
