# total energy = -92.83927562 eV
 
CRYSTAL
PRIMVEC
2.012453 4.155165 2.012468 
4.112783 -4.194840 -0.008450 
4.121179 -0.000049 -4.121121 
PRIMCOORD
16 1
Li	      8.21569     -0.00412     -0.12361        -0.019716      0.007955     -0.001921
Li	      8.14285     -2.08179     -2.06339        -0.001832      0.008511     -0.019016
Li	      8.19478      1.98332     -2.08714        -0.003896     -0.017982      0.006897
Li	      6.17937     -0.09427     -2.08420         0.007314     -0.017646     -0.004089
Mn	      4.09355     -0.00062     -4.07017         0.007555      0.025238      0.032910
Mn	      2.08749      2.07727     -0.05184         0.033179      0.018864      0.011973
Ni	      4.04061     -0.02684     -0.04591        -0.043780     -0.074702     -0.058551
Ni	      6.11190      2.05073     -0.10472        -0.059921     -0.075297     -0.042186
O	      6.10570     -0.11641      0.05265         0.113549     -0.090649      0.009030
O	      6.12050     -2.09713     -1.93254         0.135703      0.003294      0.039908
O	      3.99234      2.01123     -0.04560        -0.103364      0.129490      0.007925
O	      4.09963     -0.06642     -2.16543         0.008929      0.129926     -0.102959
O	      8.34616     -0.01955     -2.14588         0.044569      0.002698      0.135095
O	      4.19792     -2.19391     -0.05204         0.009553     -0.092040      0.113084
O	      6.18604      2.23822     -2.15843        -0.001743      0.020375     -0.126116
O	      1.98683      0.16067      0.02833        -0.126099      0.021964     -0.001986
