# total energy = -117.13339274 eV
 
CRYSTAL
PRIMVEC
0.000080 2.085855 -2.085817 
0.000066 2.085825 2.085787 
17.623751 -0.000198 -0.000019 
PRIMCOORD
16 1
Li	      0.50385      0.00184      0.00162        -0.058744     -0.000844     -0.000740
Li	      2.39555      2.08750      0.00103         0.017921     -0.002447     -0.001914
Li	      4.17669      0.00145      0.00058         0.030724      0.000773      0.000646
Li	      8.75592      2.08628      2.08509         0.038194     -0.000008      0.000946
Ti	      6.59920      2.08620     -0.00036        -0.742136      0.001164     -0.000002
Ti	     10.77425      2.08625     -0.00035        -0.031628      0.000559      0.000610
Ti	     12.90288      0.00065      0.00043        -0.054814      0.000143     -0.000111
Ti	     15.56629      2.08670      0.00069         0.937291     -0.000370      0.000166
O	     13.22559      2.08649      0.00039         0.053801      0.000733      0.001229
O	     15.15063      0.00083      0.00069        -0.000580     -0.001364     -0.000827
O	      8.87132      2.08634     -0.00047         0.021539     -0.000064      0.000016
O	     10.79249      0.00044     -0.00032        -0.076340      0.000979     -0.001194
O	      4.83790      2.08658     -0.00026         0.785178      0.000227     -0.000016
O	      6.81710      0.00042     -0.00041        -0.030851      0.000166      0.000928
O	     17.31183      2.08655      0.00064        -0.922251      0.000753      0.000712
O	      2.31849      0.00144      0.00092         0.032696     -0.000400     -0.000450
