# total energy = -120.62674360 eV
 
CRYSTAL
PRIMVEC
2.081290 4.194422 2.093167 
4.145649 -2.097226 -2.076418 
-0.008472 4.186570 -4.162163 
PRIMCOORD
16 1
Li	      0.06298      0.07889     -0.11111         0.002302      0.009964      0.005999
Li	      2.01502      2.12467     -0.06545        -0.004015      0.009545      0.010317
Li	      2.05169     -0.00166     -1.99287         0.003760     -0.011790      0.001952
Li	      0.06335      2.04691     -1.93481        -0.013157      0.002843      0.006157
Ti	      4.13381      2.09191     -2.00935         0.029620      0.007228      0.104349
Ti	      2.06333      4.24708     -2.06081         0.003753      0.039381      0.046904
Ti	      4.05562      6.17871     -2.12765        -0.071421     -0.111024     -0.117068
Ti	      4.22288      4.17159     -4.17752         0.067121      0.041226     -0.073203
O	      2.09656      2.11817     -2.14679         0.056395      0.015652     -0.034598
O	      4.16789      4.13751     -2.04541        -0.036448      0.014654     -0.003457
O	      2.13666      4.11312     -4.08713         0.021067     -0.024497      0.093947
O	      4.12116      2.08491      0.00560         0.015343      0.008241     -0.001555
O	      4.15569      0.05792     -2.00845        -0.007227      0.033810      0.054130
O	      2.00190      4.21269     -0.07635        -0.074291     -0.006354     -0.105890
O	      4.09395      2.07717     -4.13322         0.017893      0.003657      0.001439
O	      2.06856      6.33219     -2.09788        -0.010694     -0.032537      0.010576
