# total energy = -114.21057544 eV
 
CRYSTAL
PRIMVEC
-0.000014 2.132388 2.132135 
2.132097 -2.132568 0.000167 
11.208977 13.343482 0.027967 
PRIMCOORD
16 1
Li	      0.31490      2.44838      1.81813         0.029111      0.017741     -0.028752
Li	      2.20354      2.20116     -0.07045         0.061720      0.072301     -0.062627
Li	      4.08918      1.95079     -1.95658        -0.048440     -0.043825      0.049554
Li	      8.87489      6.73969     -6.74413        -0.009379     -0.008460      0.009216
Ti	      4.60441      6.73659     -2.47571        -0.087528     -0.085553      0.087608
Ti	      6.73744      6.73746     -4.60816        -0.027450     -0.027494      0.026027
Ti	      8.87686     11.00628     -6.74476         0.035703      0.036379     -0.037386
Ti	     11.00910     11.00658     -8.87725         0.055965      0.054024     -0.055031
O	     11.00582      8.87061     -8.87378        -0.007081     -0.006025      0.007052
O	      6.69406      8.82617     -4.56486        -0.027914     -0.024810      0.029716
O	      8.91998      8.91723     -6.78799         0.013602      0.011220     -0.014669
O	      6.74006      4.60785     -4.61103         0.006297      0.005415     -0.003930
O	      2.25735      4.38454     -0.12482         0.017205      0.008087     -0.017830
O	      4.76018      4.76036     -2.63148         0.142689      0.141621     -0.141627
O	     10.85319     12.98279     -8.72121        -0.112890     -0.113518      0.112494
O	      2.14778      0.01593     -0.01477        -0.041610     -0.037103      0.040186
