# total energy = -118.79608639 eV
 
CRYSTAL
PRIMVEC
0.000017 2.129395 2.130205 
4.082381 0.000013 0.000026 
0.000091 8.894621 -8.898006 
PRIMCOORD
16 1
Li	      0.00008      2.41749      1.83527        -0.000176     -0.009552      0.008610
Li	      2.04149      2.17153     -0.05057        -0.000722      0.001049      0.000715
Li	      0.00026      4.05791      0.19618        -0.000369      0.007253     -0.008642
Li	      2.04068      6.62248     -4.49481        -0.000163      0.000438      0.000533
Ti	      2.04066      4.43831     -2.31177         0.000213     -0.217978      0.223148
Ti	      4.08192      6.63551     -2.38072        -0.000243     -0.010182      0.010805
Ti	      4.08177      6.61079     -6.60722         0.001507      0.010156     -0.012410
Ti	      2.04062      8.79754     -6.68715         0.000670      0.210317     -0.230522
O	      4.08192      6.62199     -4.49523        -0.000016      0.002081      0.003359
O	      2.04069      8.73164     -4.48147        -0.001708     -0.046481      0.058438
O	      4.08183      4.54868     -2.42362         0.000579      0.003110     -0.008370
O	      2.04073      6.63856     -2.38175         0.000431      0.052549     -0.056179
O	      4.08229      2.17293     -0.04908         0.000202      0.000074      0.000179
O	      2.04066      4.66362     -0.40847        -0.000157      0.163175     -0.165784
O	      4.08181      8.69743     -6.56459        -0.000271     -0.002567      0.010140
O	      2.04072     10.70710     -6.45483         0.000223     -0.163443      0.165979
