# total energy = -120.08938532 eV
 
CRYSTAL
PRIMVEC
0.000526 2.091502 2.091285 
6.150688 0.024933 -2.114643 
-2.039237 6.361028 -4.269620 
PRIMCOORD
16 1
Li	      0.01912      2.15711      2.02413         0.001798      0.009883     -0.010936
Li	      2.04763      2.11253     -0.02227        -0.000365     -0.000127      0.000016
Li	      4.07718      2.06701     -2.06647        -0.003730     -0.006660      0.007466
Li	      4.10418      4.26041     -4.26121        -0.005271     -0.001855      0.002211
Ti	     -0.11487      4.20269     -0.02218        -0.055261     -0.034825      0.036492
Ti	      2.08347      4.27209     -2.18113         0.126870      0.029999     -0.030416
Ti	     -0.02664      6.31459     -2.13311        -0.121753     -0.026665      0.025589
Ti	      2.17052      6.38356     -4.29157         0.058091      0.030757     -0.032635
O	      4.08955      4.24439     -2.15315         0.039113      0.004619     -0.004440
O	      4.09502      2.01801      0.07371         0.026075     -0.049623      0.047623
O	      2.12624      6.37726     -2.19423         0.016914     -0.005286     -0.005808
O	      1.98812      2.20652     -2.20748        -0.069036      0.017379     -0.017635
O	      4.11807      6.36732     -4.27564        -0.040459     -0.005910      0.005399
O	      0.06737      6.28904     -4.19863         0.071974     -0.021123      0.020252
O	     -0.06890      4.20907     -2.11966        -0.017555      0.007018      0.005524
O	      0.00103      2.20729     -0.11796        -0.027407      0.052418     -0.048700
