# total energy = -120.26670426 eV
 
CRYSTAL
PRIMVEC
-0.000016 2.074578 2.074551 
8.382457 -4.190424 4.190143 
2.108470 2.117519 -4.192098 
PRIMCOORD
16 1
Li	      0.21225     -0.00909      0.00876         0.028513     -0.012165      0.012125
Li	      2.10267      2.08941     -0.01544        -0.000250     -0.000362     -0.000016
Li	      3.99243      2.11356     -2.11403        -0.027861      0.010434     -0.011805
Li	      6.29369     -0.00624      2.07971        -0.000683      0.000329     -0.000858
Ti	      4.04697     -0.04808      0.04721        -0.321390      0.074357     -0.074284
Ti	      4.25840     -0.05316      4.20090         0.105720     -0.104302      0.107667
Ti	      8.32870      0.04107     -0.04143        -0.105572      0.104877     -0.107564
Ti	      8.54033     -2.03875      2.03779         0.318452     -0.071019      0.073092
O	      8.32070     -2.01435      4.08828         0.045328      0.082397     -0.084373
O	      4.20932     -0.03918      2.11266        -0.029607      0.023398     -0.023634
O	      6.21813     -0.02955      0.02809        -0.073487      0.022676     -0.017321
O	      6.36909     -2.05714      2.05680         0.073267     -0.022519      0.018908
O	      8.37772      0.02721      2.04682         0.030979     -0.026110      0.023379
O	      1.98847      2.13221     -2.13285        -0.403588      0.008433     -0.003077
O	      2.21627     -0.02805      0.02750         0.404669     -0.009497      0.005343
O	      4.26644      2.00222      0.07133        -0.044492     -0.080928      0.082418
