# total energy = -117.31515395 eV
 
CRYSTAL
PRIMVEC
-0.000113 2.079953 -2.079944 
-0.000340 2.079976 2.079966 
17.932357 -0.001539 -0.000460 
PRIMCOORD
16 1
Li	      0.42634      2.08330     -2.07630        -0.011786     -0.002344     -0.001808
Li	      2.24209      2.08185      0.00383        -0.002616      0.000445     -0.000190
Li	      4.05531      2.08097     -2.07690         0.014579      0.000340     -0.000163
Li	     11.21157      2.08096      0.00044        -0.012008     -0.000213     -0.000604
Ti	      6.60761      2.08091      0.00027        -0.977524     -0.002847      0.000887
Ti	      9.24237      0.00093      0.00034         0.109667     -0.000722     -0.000048
Ti	     13.17447      0.00209      0.00066        -0.114440     -0.001180     -0.000381
Ti	     15.80487      2.08297      0.00140         0.988128     -0.002721      0.000123
O	     13.36610      2.08207      0.00062        -0.038191      0.003907      0.002100
O	     15.36832      0.00293      0.00119        -0.014688     -0.000933      0.000634
O	      9.04808      2.08082      0.00036         0.041064      0.001729     -0.000882
O	     11.20814      0.00127      0.00043        -0.001206      0.000806      0.000307
O	      4.85985      2.08037      0.00116         0.958087      0.001983      0.000562
O	      7.04573      0.00078      0.00015         0.016890      0.001376      0.001468
O	     17.55250      2.08238      0.00252        -0.953451      0.000279     -0.001821
O	      2.24120      2.08240     -2.07620        -0.002505      0.000095     -0.000183
