# total energy = -120.35312285 eV
 
CRYSTAL
PRIMVEC
4.095111 0.000737 0.000246 
2.047877 4.269966 -6.215339 
-2.046706 4.245484 2.055376 
PRIMCOORD
16 1
Li	      2.04807      4.24075      1.90259         0.003047     -0.015103      0.007719
Li	      2.04787      2.12257     -0.00371        -0.002922     -0.001019     -0.002188
Li	      0.00073      4.25114      0.14467         0.001070      0.016729     -0.003174
Li	      0.00092      6.38134     -2.08406        -0.003907     -0.001300     -0.000003
Ti	      4.09455      2.17538     -2.00880        -0.000294     -0.127371      0.047617
Ti	      2.04837      4.29138     -2.00099         0.001659      0.052084      0.013233
Ti	      4.09451      4.22620     -4.22048        -0.003230     -0.055269     -0.013573
Ti	      2.04833      6.34287     -4.21539         0.001310      0.126338     -0.039843
O	      0.00066      4.32901     -2.05387         0.003259     -0.026775      0.060651
O	     -0.00018      2.12371     -0.00333         0.000246     -0.000081     -0.002760
O	      2.04793      6.38143     -2.08406         0.000391      0.002723      0.000647
O	      2.04783      4.38179     -0.05085         0.006070      0.077231     -0.077250
O	      2.04668      4.18846     -4.16802         0.003599      0.023447     -0.065376
O	      4.09567      6.31389     -4.17415        -0.005079     -0.058580     -0.016946
O	      2.04720      2.20389     -2.04834         0.002827      0.060430      0.015562
O	      2.04801      8.38132     -4.11602        -0.008045     -0.073485      0.075682
