# total energy = -115.61981259 eV
 
CRYSTAL
PRIMVEC
0.000693 2.139685 2.137866 
2.138211 -2.139489 0.000497 
11.529098 13.677230 0.027230 
PRIMCOORD
16 1
Li	      0.30632      2.44760      1.83883         0.029830      0.026321     -0.025231
Li	      1.95039      1.95184      0.19480        -0.040352     -0.039432      0.039663
Li	      4.88306      7.03426     -2.74895         0.032979      0.028892     -0.033599
Li	      6.52320      6.53458     -4.38978        -0.019960     -0.013445      0.018225
Ti	      4.48681      2.35081     -2.34476         0.014203      0.015107     -0.015005
Ti	      9.14840      7.01903     -7.00803        -0.010750     -0.008997      0.010962
Ti	      9.18385     11.33162     -7.04405        -0.010631     -0.011017      0.010179
Ti	     11.34947     11.35772     -9.21048         0.010299      0.007263     -0.009560
O	     11.33076      9.20025     -9.19130         0.008780      0.012296     -0.009515
O	      7.17385      9.32285     -5.03333         0.045591      0.046869     -0.045375
O	      9.17002      9.17931     -7.02986        -0.008311     -0.008864      0.008190
O	      6.78225      4.65493     -4.64819        -0.004662     -0.006319      0.006137
O	      2.48582      4.62757     -0.34348         0.081683      0.077334     -0.082383
O	      4.35202      4.35355     -2.20995        -0.096440     -0.092693      0.095110
O	     11.18673     13.33309     -9.04796        -0.032911     -0.034193      0.033809
O	      2.18768      0.05076     -0.04267         0.000651      0.000878     -0.001607
