# total energy = -119.82118856 eV
 
CRYSTAL
PRIMVEC
-0.000046 2.089860 2.089045 
4.142804 -0.000188 0.000098 
-0.000268 8.530219 -8.527159 
PRIMCOORD
16 1
Li	      4.13040      2.22551      1.95082        -0.001439     -0.024218      0.024270
Li	      2.08705      2.11696     -0.02748        -0.001346     -0.033038      0.032763
Li	      2.08727      4.23777     -2.14938        -0.000082      0.034353     -0.033793
Li	      4.13114      6.21796     -2.03965        -0.001635      0.023321     -0.024140
Ti	      0.13018      4.22292     -0.04399         0.146621     -0.000404     -0.000814
Ti	      2.06446      6.35444     -4.26715        -0.022550      0.028790     -0.038927
Ti	      0.00214      6.40256     -6.39095        -0.008627      0.017085     -0.005846
Ti	      2.06313      8.52718     -6.44061        -0.022766     -0.034517      0.029503
O	      4.13701      6.36644     -4.26840        -0.006286      0.020582     -0.020106
O	      2.07242      8.48526     -4.30974         0.035819     -0.004456     -0.004194
O	      4.12432      4.13536     -2.04619         0.036795     -0.104852      0.102037
O	      2.06527      4.37156     -4.36891         0.001894      0.075079     -0.064447
O	      4.12389      2.22006     -0.13113         0.036999      0.103557     -0.100644
O	      2.00132      4.22276     -0.04421        -0.192185     -0.000767      0.002943
O	      4.13551      8.52682     -6.42908        -0.002899     -0.034600      0.032527
O	      2.06410     10.51511     -6.33375         0.001686     -0.065914      0.068868
