# total energy = -120.04780216 eV
 
CRYSTAL
PRIMVEC
0.000266 2.083802 2.085104 
6.202253 0.001436 -2.085698 
-2.094081 6.333758 -4.253174 
PRIMCOORD
16 1
Li	      0.08720      2.27095      1.89645         0.004856      0.013120     -0.012039
Li	      1.91605      2.18102     -0.09733        -0.015111     -0.000607     -0.003489
Li	      0.14073      4.11093      0.05893         0.016592      0.001005      0.002659
Li	      1.97086      4.02100     -1.93548        -0.005839     -0.016778      0.015101
Ti	      4.13027      2.10466     -2.10484        -0.000517     -0.000772      0.000932
Ti	      4.05917      4.22839     -4.22615        -0.080264     -0.032960      0.025352
Ti	     -0.01607      6.31360     -2.14727         0.000648      0.001851     -0.001563
Ti	      2.10607      6.31432     -4.23708         0.077005      0.033841     -0.023773
O	      4.09670      4.22104     -2.13657         0.016601     -0.010815      0.008199
O	      4.16509      2.07201      0.01186        -0.018930      0.011182     -0.009024
O	      2.00017      6.28738     -2.12547        -0.012536      0.016775     -0.012125
O	      2.21351      2.08045     -2.08047         0.148490      0.003271     -0.002169
O	      4.16743      6.33818     -4.25171         0.014212     -0.014888      0.012640
O	      0.02666      6.27652     -4.19264         0.046110     -0.088909      0.092488
O	     -0.06465      4.26668     -2.18663        -0.041782      0.085345     -0.090436
O	     -0.15512      2.12780     -0.04341        -0.149536     -0.000661     -0.002754
