# total energy = -119.80955504 eV
 
CRYSTAL
PRIMVEC
0.000038 2.083652 2.083369 
6.343819 6.374026 -4.289857 
-4.171529 2.097820 -2.097602 
PRIMCOORD
16 1
Li	     -4.11638      4.16463      0.00107         0.018736     -0.007041      0.005589
Li	     -2.25671      4.10995     -2.02613        -0.008529     -0.004676      0.008544
Li	      2.29542      6.47935     -4.39586        -0.009823      0.026186     -0.025254
Li	      4.17569      8.47493     -4.30701        -0.047941      0.014786     -0.014523
Ti	     -0.03144      6.37383     -2.20545        -0.087656      0.050917     -0.058885
Ti	     -0.15459      4.17736     -0.00916        -0.406839     -0.125263      0.118809
Ti	      2.26756      4.18312     -2.09873         0.122527     -0.009473      0.006861
Ti	      4.38867      6.37464     -2.20841         0.331330      0.048967     -0.044519
O	      2.11052      6.24754     -2.07977        -0.035267     -0.058409      0.056147
O	      2.03500      4.20511     -0.03700        -0.082030      0.017484     -0.018979
O	      0.22027      6.37156     -4.28774         0.087526      0.056930     -0.051250
O	      2.06624      8.47697     -4.31020        -0.329758     -0.014152      0.014907
O	     -1.97957      4.21401     -0.04682         0.417006      0.002354      0.003405
O	      0.08389      4.21612     -2.13164         0.037998     -0.009453      0.013180
O	      4.21284      6.26677     -4.18369         0.021459     -0.125036      0.119446
O	     -0.01521      2.20242     -0.11802        -0.028739      0.135878     -0.133478
