# total energy = -119.97770602 eV
 
CRYSTAL
PRIMVEC
-0.000855 2.094765 2.096394 
8.168297 -4.280663 4.280723 
2.022770 2.141983 -4.240956 
PRIMCOORD
16 1
Li	      0.15316     -0.00574      0.00694        -0.016793      0.014872     -0.014764
Li	      2.06651      2.08280      0.01203        -0.014143      0.000501     -0.004210
Li	      4.04168      0.01871     -0.01919         0.007796     -0.005821      0.008416
Li	      5.95380      2.10639     -0.01351         0.017618     -0.013809      0.014083
Ti	      2.03932     -0.02135      2.11708        -0.012368      0.015920     -0.014236
Ti	      6.03205     -0.06580      2.16488         0.017661     -0.063816      0.045023
Ti	      6.13260     -2.15536      4.25201         0.037571      0.037046     -0.036187
Ti	      8.23858     -2.11650      2.11236        -0.046263      0.026618     -0.012029
O	      8.18388     -2.08994      4.18294        -0.042167      0.010203     -0.028119
O	      4.05251     -0.05219      2.14930        -0.026240     -0.000143      0.005780
O	      6.10004     -0.09423      0.09606         0.060942     -0.014562      0.031358
O	      6.02999     -2.17005      2.17328        -0.103135     -0.024137      0.022530
O	      8.24038     -0.00678      2.09812         0.075527      0.027480     -0.027043
O	      2.05726      2.15312     -2.15648         0.038683     -0.002153     -0.001780
O	      2.07056     -0.11452      0.11510         0.004926     -0.073175      0.076202
O	      4.03838      2.21450     -0.12140         0.000384      0.064977     -0.065024
