# total energy = -120.45115091 eV
 
CRYSTAL
PRIMVEC
4.100544 -0.000171 -0.000162 
2.050362 4.202384 -6.238034 
-2.050553 4.196951 2.075790 
PRIMCOORD
16 1
Li	      4.10241      0.17031     -0.11473        -0.003616      0.008098      0.017548
Li	      2.05202      2.15346     -0.10898         0.000921     -0.008542      0.007175
Li	      4.10237      2.04677     -1.97528        -0.000517      0.010407     -0.008738
Li	      2.05165      4.02862     -1.96953         0.002915     -0.006917     -0.018141
Ti	      0.00162      4.19912     -0.00396         0.000605     -0.001447     -0.007222
Ti	      0.00161      6.27521     -2.06984        -0.007196      0.038505     -0.058437
Ti	      4.10210      4.20235     -4.16096         0.002866     -0.003999      0.002125
Ti	      2.05161      6.32379     -4.17722         0.009897     -0.044500      0.061110
O	      0.00188      4.22204     -2.07694        -0.000083     -0.000890      0.029605
O	      0.00202      2.19264      0.05799        -0.001844      0.098815      0.074320
O	      2.05184      6.26662     -2.06102        -0.008287     -0.004888     -0.001385
O	      2.05183      4.19873     -0.00457         0.000856      0.000542      0.003108
O	      2.05194      4.20082     -4.16114        -0.000772      0.006394     -0.000821
O	      4.10202      6.33405     -4.18588         0.009430      0.006615     -0.003275
O	      2.05191      2.00809     -2.14262        -0.000032     -0.101607     -0.065260
O	      2.05204      8.37749     -4.16926        -0.005142      0.003413     -0.031710
