# total energy = -117.96687727 eV
 
CRYSTAL
PRIMVEC
-0.000068 2.110820 2.111244 
2.110876 -2.110831 -0.000056 
11.065096 13.175290 0.028325 
PRIMCOORD
16 1
Li	      0.25298      2.36096      1.85249         0.005221      0.001065     -0.005041
Li	      1.91233      1.91004      0.19261        -0.008244     -0.005334      0.011256
Li	      4.46699      6.57994     -2.35747         0.003700      0.003848     -0.003418
Li	      8.74479      6.63425     -6.63488         0.007406      0.007197     -0.007574
Ti	      4.43892      2.32971     -2.32850        -0.068576     -0.063372      0.066927
Ti	      6.60735      6.60855     -4.49733         0.011044      0.010665     -0.010639
Ti	      8.77051     10.88070     -6.66084         0.087860      0.087828     -0.087679
Ti	     10.90011     10.89932     -8.79050        -0.013445     -0.013844      0.012719
O	     10.89047      8.77878     -8.78103        -0.034063     -0.032127      0.035190
O	      6.57738      8.68937     -4.46654        -0.057002     -0.056990      0.054411
O	      8.79787      8.79724     -6.68834         0.000937      0.001726     -0.001836
O	      6.63908      4.52920     -4.52969         0.046338      0.046634     -0.045435
O	      2.45510      4.56999     -0.34570         0.111082      0.113170     -0.111227
O	      4.41868      4.42266     -2.30890        -0.016275     -0.020018      0.016117
O	     10.77165     12.88176     -8.66174        -0.076767     -0.079453      0.078013
O	      2.13906      0.02577     -0.03392         0.000785     -0.000995     -0.001784
