# total energy = -120.22820042 eV
 
CRYSTAL
PRIMVEC
-0.000023 2.090191 2.090719 
4.051174 -0.000035 -0.000011 
-0.000005 8.498171 -8.500198 
PRIMCOORD
16 1
Li	      4.05029      0.13969     -0.13644        -0.000223      0.019793     -0.020944
Li	      2.02382      2.10297     -0.01587         0.000445      0.009180     -0.006079
Li	      2.02366      4.20550     -2.11542        -0.000238      0.005661     -0.005887
Li	      2.02398      6.25086     -4.15993         0.000700      0.001041     -0.002114
Ti	      4.04953      4.22304     -0.04305        -0.000242     -0.006569      0.006648
Ti	      4.04932      4.22680     -4.22692         0.000872     -0.104092      0.106136
Ti	      4.05044      6.37600     -6.37450         0.000116     -0.126354      0.125860
Ti	      2.02551      8.48834     -6.39437        -0.002039      0.171613     -0.168911
O	      4.04977      6.33849     -4.24716         0.001116      0.003379     -0.002249
O	      2.02491      6.34843     -6.34553        -0.000338     -0.016252      0.013225
O	      4.04921      4.23695     -2.14691         0.000552      0.045444     -0.045638
O	      2.02398      4.24447     -4.24448        -0.000339     -0.006260      0.007221
O	      4.04933      2.21872     -0.12910         0.002698      0.048027     -0.045162
O	      2.02364      4.24118     -0.06116         0.000096      0.001028     -0.000212
O	      4.05113      8.48903     -6.39645        -0.001780      0.024706     -0.025838
O	      2.02527      8.37995     -8.37674        -0.001396     -0.070346      0.063943
