# total energy = -91.75737692 eV
 
CRYSTAL
PRIMVEC
2.015242 4.073962 2.129832 
4.077105 -4.090868 -0.013271 
4.065571 -0.025469 -4.244576 
PRIMCOORD
16 1
Li	      6.13091     -2.04914     -0.07891        -0.003705      0.001603      0.007614
Li	      6.07992     -4.03900     -2.04642        -0.008924     -0.005336      0.000925
Li	      6.10605     -2.07069     -4.11649        -0.028638     -0.005342     -0.018330
Li	      6.06869      2.00137     -0.06011         0.032237     -0.000745      0.010453
Mn	      0.03933      0.00709     -0.00121         0.003710     -0.004716     -0.045471
Mn	      4.05537     -0.01343     -0.06052         0.012221      0.023910     -0.004942
Ni	      4.03770      2.00914     -2.10416         0.054912      0.008163     -0.011396
Ni	      6.12900     -0.03743     -2.10676         0.039253      0.078126      0.029157
O	      5.98133      0.00802     -0.03584        -0.043325     -0.012987      0.063689
O	      6.24322     -2.04111     -2.12227        -0.192816     -0.125828      0.002762
O	      4.03536      1.87342     -0.16558         0.002099     -0.072204      0.144342
O	      4.07532     -0.06889     -2.01420        -0.130217     -0.094529      0.069967
O	      8.18710      0.00018     -2.31817         0.082421      0.091005     -0.029089
O	      4.07535     -2.07099      0.14140        -0.000594      0.053016     -0.115744
O	      5.98435      2.11349     -2.09711         0.127410      0.055722     -0.007473
O	      2.04079     -0.03983      0.04342         0.053956      0.010141     -0.096463
