# total energy = -119.99185365 eV
 
CRYSTAL
PRIMVEC
0.000059 2.086803 2.086568 
6.237525 6.339218 -4.251830 
-4.129524 2.101126 -2.101012 
PRIMCOORD
16 1
Li	     -4.08019      4.21840     -0.04518         0.007520      0.017088     -0.019594
Li	     -2.25460      4.14912     -2.06392        -0.035749      0.009265     -0.005697
Li	      2.16321      6.41715     -4.32993        -0.015652     -0.003311      0.002334
Li	     -0.04456      4.15832      0.01487         0.000119     -0.006118      0.005852
Ti	     -0.03382      6.33401     -2.16031        -0.104572      0.004163     -0.005550
Ti	     -2.01314      2.11546     -0.02874         0.343475      0.097445     -0.097258
Ti	      2.19270      4.20028     -2.11341         0.093898     -0.065794      0.065918
Ti	      4.24714      6.31174     -2.13795         0.048849     -0.055410      0.055991
O	      2.09248      6.28979     -2.11617        -0.061686     -0.014844      0.011074
O	      2.04465      4.23402     -0.06036         0.032092      0.074249     -0.074273
O	      0.20304      6.32232     -4.23533         0.082603     -0.014828      0.022561
O	      2.07891      8.41945     -4.24540        -0.065147     -0.006024      0.007867
O	     -2.11153      4.11332      0.06002        -0.001713     -0.099705      0.094960
O	      0.08443      4.30414     -2.21702         0.062632      0.067789     -0.064265
O	      4.13618      6.32446     -4.23711         0.002379     -0.009553      0.009576
O	     -0.17735      2.09257     -0.00582        -0.389049      0.005586     -0.009496
