# total energy = -120.43395356 eV
 
CRYSTAL
PRIMVEC
-0.000053 2.069174 2.069155 
8.198093 -4.218354 4.218140 
2.088699 2.168264 -4.237493 
PRIMCOORD
16 1
Li	      0.09443      0.02824     -0.03071         0.003078      0.008435     -0.008665
Li	      2.06694      2.02101      0.04637         0.001376     -0.012341      0.013115
Li	      4.06794     -0.00429      0.00077         0.003557     -0.001876      0.007208
Li	      6.03366      0.08825      1.97802         0.001492     -0.005510      0.003339
Ti	      4.02105      2.13138     -2.13351        -0.141604      0.053232     -0.054853
Ti	      6.26987      2.08300     -0.01571         0.068482     -0.044190      0.043631
Ti	      6.15872     -2.09900      4.16446        -0.041157      0.077717     -0.073690
Ti	      8.26144     -2.05984      2.05743        -0.001391     -0.055411      0.058656
O	      8.24564     -2.06226      4.12901        -0.030419      0.042857     -0.046249
O	      4.02322     -0.09645      2.16306        -0.059940     -0.050313      0.055387
O	      6.13918      0.02736     -0.02954         0.007994      0.049378     -0.047068
O	      6.22150     -2.04353      2.04020         0.055032     -0.023512      0.021339
O	      8.28415      0.03620      2.03052         0.024631     -0.010310      0.003371
O	      2.09458      2.13500     -2.13744         0.074251      0.008885     -0.009015
O	      2.06574     -0.10834      0.10572        -0.010984     -0.083593      0.083775
O	      4.16391      2.14878     -0.08189         0.045604      0.046551     -0.050280
