# total energy = -119.61779903 eV
 
CRYSTAL
PRIMVEC
-0.000068 2.100514 -2.100508 
0.000037 2.100501 2.100495 
16.461694 -0.000157 0.000387 
PRIMCOORD
16 1
Li	      0.31967      2.10151     -2.09908         0.044752     -0.000792     -0.000429
Li	      2.01480      2.10115      0.00169        -0.002007     -0.000385     -0.001322
Li	      6.16593      2.10043      0.00111         0.008661      0.000448     -0.000627
Li	     10.15751      2.10061      0.00067        -0.023534      0.000036      0.000076
Ti	      4.10261      2.10066     -2.09921        -0.436322      0.000467      0.001027
Ti	      8.14860      2.10050     -2.09978        -0.188510      0.000302      0.001810
Ti	     12.13582      0.00040      0.00077        -0.110547     -0.000450      0.000625
Ti	     14.58077      2.10115      0.00115         0.547072     -0.000316      0.000428
O	     12.27540      2.10090      0.00071        -0.077501      0.000371      0.001617
O	     14.33657      2.10109     -2.09943         0.039530      0.000297      0.000317
O	      8.18291      2.10048      0.00077         0.017142      0.000534      0.000463
O	     10.17831      2.10071     -2.09943         0.149043     -0.000363     -0.000969
O	      4.20101      2.10067      0.00133         0.027487      0.000212      0.000246
O	      6.20787      2.10052     -2.09929         0.160615      0.000289     -0.000772
O	     16.39693      2.10117      0.00143        -0.551863     -0.000402     -0.000365
O	      2.26850      2.10085     -2.09899         0.395983     -0.000249     -0.002125
