# total energy = -120.51172433 eV
 
CRYSTAL
PRIMVEC
4.118104 -0.001046 -0.000945 
2.059444 4.089148 -6.247631 
-2.060579 4.131410 2.110214 
PRIMCOORD
16 1
Li	      4.11832      0.09199     -0.05983        -0.003213      0.018102      0.019737
Li	      2.05749      2.06589     -0.02806        -0.000049     -0.007742      0.023195
Li	      4.11802      2.01158     -1.99134        -0.005787      0.008816      0.022529
Li	     -0.00164      6.16779     -2.00681         0.002125      0.010823     -0.012610
Ti	     -0.00189      4.15457      0.06324         0.000571     -0.045719      0.152718
Ti	      2.05741      4.08805     -2.09440         0.004716      0.027107     -0.025695
Ti	      4.11882      4.04913     -4.20993        -0.010128      0.011308     -0.102577
Ti	      2.05669      6.15572     -4.14611         0.012789     -0.042980     -0.032225
O	      4.11688      4.09523     -2.07260         0.001154      0.028072      0.001043
O	     -0.00202      2.16733      0.09129         0.001449      0.077791      0.024823
O	      2.05809      6.11309     -2.07147        -0.004048     -0.023530     -0.020598
O	      2.05684      4.14412      0.01691         0.001286     -0.017340     -0.036658
O	      2.05977      4.03492     -4.22283        -0.011726     -0.044713      0.041019
O	      4.11621      6.13677     -4.11675         0.003534      0.007148     -0.018991
O	      2.05822      2.05644     -2.08230         0.003900     -0.006010      0.004287
O	      2.05850      0.01754     -0.01742         0.003425     -0.001135     -0.039999
