# total energy = -120.67808354 eV
 
CRYSTAL
PRIMVEC
2.096205 4.142288 2.088905 
4.169273 -2.060099 -2.087822 
0.012616 4.124132 -4.154186 
PRIMCOORD
16 1
Li	      0.07250      0.03652     -0.04818         0.019540      0.010599      0.016806
Li	      2.03870      2.12137     -0.02374        -0.012234      0.012489     -0.000325
Li	      4.22885      2.03187     -2.03902         0.018420      0.003618      0.010924
Li	      2.03923      4.07639     -2.05525         0.001960     -0.005238      0.001238
Ti	      4.20160      4.11776     -0.02712         0.016182     -0.039167     -0.081481
Ti	      6.22592      4.15494     -2.07580        -0.025182     -0.019739     -0.011123
Ti	      4.14719      6.19658     -2.07291        -0.069391      0.028644      0.052750
Ti	      4.23708      4.16073     -4.09739         0.074513     -0.008195      0.053914
O	      2.04488      2.02971     -2.10175        -0.020540     -0.051127     -0.043699
O	      4.11682      4.08409     -2.06433        -0.033791      0.020875      0.003790
O	      2.16060      4.10779     -4.19485        -0.001726     -0.039709     -0.014126
O	      4.18897      2.07930      0.00830        -0.002479      0.023319      0.012600
O	      4.15023      0.02174     -2.05409        -0.062675     -0.010638      0.017383
O	      2.17782      4.23945      0.01035         0.062244      0.103472     -0.002911
O	      4.13195      2.06877     -4.15045        -0.003552     -0.031996     -0.008845
O	      2.11983      6.21447     -2.06994         0.038712      0.002794     -0.006894
