# total energy = -118.00823904 eV
 
CRYSTAL
PRIMVEC
0.000078 2.120035 2.118195 
2.117997 -2.119880 -0.000077 
11.017426 13.146337 0.028433 
PRIMCOORD
16 1
Li	      0.25438      2.37758      1.85996         0.026983      0.020787     -0.024694
Li	      1.90889      1.91132      0.20543        -0.019976     -0.015272      0.019919
Li	      4.46722      6.59463     -2.35423         0.021347      0.021012     -0.021852
Li	      8.72073     10.84591     -6.60850        -0.030788     -0.030631      0.031508
Ti	      4.44935      2.33189     -2.33679        -0.058332     -0.050124      0.058184
Ti	      6.61416      6.62256     -4.50059         0.054158      0.055813     -0.055367
Ti	      8.69010      6.57626     -6.57618        -0.058842     -0.056876      0.057650
Ti	     10.85479     10.86239     -8.74365         0.063221      0.063814     -0.062427
O	     10.87733      8.76534     -8.76582         0.037588      0.034525     -0.036886
O	      6.59307      8.71939     -4.47914         0.001184     -0.000316     -0.000802
O	      8.65512      8.65966     -6.54117        -0.002993     -0.004428      0.001547
O	      6.64807      4.53840     -4.53512         0.009439      0.010346     -0.008382
O	      2.46363      4.59321     -0.35196         0.107442      0.110419     -0.109018
O	      4.42464      4.43284     -2.31309        -0.038494     -0.044066      0.039938
O	     10.72056     12.84503     -8.60892        -0.108318     -0.111191      0.107388
O	      2.14147      0.02535     -0.02736        -0.003620     -0.003812      0.003295
