# total energy = -120.25150023 eV
 
CRYSTAL
PRIMVEC
-0.000021 2.093049 2.093985 
4.057139 0.000139 -0.000181 
0.000459 8.448194 -8.451926 
PRIMCOORD
16 1
Li	      0.00104      0.02903     -0.02801         0.000103      0.021678     -0.020642
Li	      2.03053      2.07450      0.01388        -0.000420     -0.028972      0.026973
Li	      2.03026      4.11605     -2.02967        -0.000078      0.029485     -0.025567
Li	      0.00080      6.43469     -6.43578         0.000986     -0.026356      0.023550
Ti	      0.00232      4.19892     -0.01808        -0.002303     -0.016400      0.016624
Ti	      0.00085      6.31598     -2.13410        -0.000933     -0.044694      0.044281
Ti	      2.02986      6.32747     -4.23711        -0.017485      0.044219     -0.047368
Ti	      2.02967      8.44428     -6.35251        -0.000450      0.040939     -0.042117
O	      4.05717      6.35884     -4.26989         0.016144      0.014352     -0.012969
O	      2.02924      6.33920     -6.34186         0.001627      0.028070     -0.027276
O	      0.00154      4.21254     -2.12442         0.001028     -0.046368      0.044213
O	      2.02926      6.28428     -2.10163         0.003627     -0.004278      0.005503
O	      0.00167      2.21398     -0.12674         0.000536      0.054108     -0.051575
O	      2.03023      4.22515     -0.04489         0.000133     -0.021086      0.024728
O	      0.00106      8.41909     -6.32699         0.000220      0.011767     -0.014853
O	      2.03017      8.33680     -8.33871        -0.002737     -0.056464      0.056493
