# total energy = -119.83301662 eV
 
CRYSTAL
PRIMVEC
-0.000179 2.110022 2.110538 
6.202387 0.007853 -2.118892 
-2.047404 6.309017 -4.199867 
PRIMCOORD
16 1
Li	      0.16182      0.05183     -0.05028         0.016428      0.011287     -0.009041
Li	      1.90617      2.05971      0.05336        -0.009639     -0.013177      0.009273
Li	      0.14650      4.12586      0.09550         0.000753     -0.023411      0.024567
Li	     -0.12213      6.40269     -2.18248        -0.001292      0.026185     -0.029063
Ti	      4.25337      2.10733     -2.10771         0.277102      0.013179      0.012480
Ti	      1.96205      4.24084     -2.13177        -0.025140     -0.020057      0.033822
Ti	      4.26450      4.18594     -4.18717         0.027149      0.026222     -0.028602
Ti	      1.97182      6.32177     -4.21150        -0.275117     -0.016056     -0.008258
O	      4.15864      4.20035     -2.09034         0.072495     -0.001218     -0.011309
O	      4.13694      2.11448     -0.00381        -0.002428     -0.001040     -0.005261
O	      2.06828      6.33775     -2.11817        -0.074836      0.002584      0.013773
O	      2.12923      2.19215     -2.19144        -0.020727      0.020401     -0.063158
O	      4.09636      6.23485     -4.12685         0.019698     -0.019017      0.059904
O	      0.11600      6.33214     -4.22221         0.306440      0.006731     -0.000002
O	      0.01210      4.20967     -2.10010        -0.003813     -0.000346     -0.004450
O	     -0.09252      2.08847      0.02343        -0.307074     -0.012268      0.005326
