# total energy = -91.88372406 eV
 
CRYSTAL
PRIMVEC
2.057899 4.178087 2.013887 
4.162349 -4.194363 -0.014085 
4.172423 -0.003659 -4.075275 
PRIMCOORD
16 1
Li	      2.11814      2.04433     -0.02540         0.038320     -0.004101      0.020318
Li	      4.15693      4.05433      0.01574        -0.000297     -0.003824      0.020437
Li	      2.09507     -2.06126     -0.03272        -0.026399     -0.002657     -0.022209
Li	      4.12628      0.11198     -0.02440        -0.015416      0.010656     -0.004758
Mn	      6.19717     -0.03970      1.96203         0.022396      0.005720     -0.021185
Mn	      6.30805      0.00648     -2.03633         0.008884      0.007037     -0.017138
Ni	      8.27381     -2.11960     -2.05762        -0.053104     -0.045472     -0.060960
Ni	      4.15123     -2.07834     -1.99894         0.060595      0.049212      0.053184
O	      6.28403      0.05582     -0.00496        -0.022378     -0.112387      0.029451
O	      6.21697     -1.90132     -2.00668        -0.028487      0.005378     -0.004701
O	      4.22679      2.06532     -0.11062        -0.088245      0.009228      0.165019
O	      4.14063      0.00376     -2.15731        -0.038956     -0.012420     -0.033405
O	      8.40059     -0.09692     -2.12372         0.088212      0.111685      0.007612
O	      4.10229     -2.30834      0.01792        -0.002240     -0.048690     -0.006206
O	      6.20626      2.09057     -2.03667         0.080055      0.027627     -0.112844
O	      1.95168     -0.00693      0.10310        -0.022942      0.003010     -0.012617
