# total energy = -120.64437861 eV
 
CRYSTAL
PRIMVEC
4.096734 -0.000807 -0.000758 
2.048711 4.076336 -6.345306 
-2.049573 4.146800 2.161501 
PRIMCOORD
16 1
Li	      0.00186      0.07940     -0.02081         0.001336      0.004219      0.012277
Li	      2.04964      1.97906      0.03845         0.001565     -0.006861     -0.009747
Li	      4.09875      2.01339     -1.93022        -0.001505      0.005172      0.019005
Li	      4.09841      4.12005     -4.39837        -0.001901     -0.005685     -0.019034
Ti	      0.00074      4.13582      0.02985        -0.000395      0.038392      0.022241
Ti	      2.05071      4.08637     -2.12220        -0.019717      0.019902     -0.060658
Ti	      0.00013      6.19430     -2.04286         0.020077     -0.015642      0.052249
Ti	      2.04996      6.14585     -4.19573         0.001782     -0.043137     -0.023727
O	      4.09866      4.05983     -2.10427         0.009815     -0.061055     -0.006290
O	      0.00155      2.15265      0.12508        -0.002291      0.086878      0.045890
O	      2.04900      6.21997     -2.06212        -0.010207      0.061250      0.007490
O	      2.04926      4.15918     -0.00846         0.006963      0.001334      0.024276
O	      2.04987      4.11127     -4.21584         0.001511      0.027424      0.004523
O	      4.09832      6.12149     -4.15789        -0.004592     -0.000806     -0.021088
O	      2.05062      2.02294     -2.11103         0.000306     -0.028178     -0.000313
O	      0.00095      4.05216      2.05498        -0.002746     -0.083207     -0.047095
