# total energy = -120.64972058 eV
 
CRYSTAL
PRIMVEC
2.105174 4.090465 2.054170 
4.212635 -2.033894 -2.078726 
0.021215 4.097811 -4.144357 
PRIMCOORD
16 1
Li	      2.08773      4.04992      1.99542        -0.013353     -0.002144     -0.003613
Li	      2.12521      2.08846      0.04890         0.011993      0.007349      0.000771
Li	      4.24969      2.01645     -2.02476         0.006544      0.021589     -0.002629
Li	      4.19673      6.18777     -2.15404        -0.007223     -0.024105      0.000772
Ti	      4.22213      4.08058     -0.01957        -0.068201      0.015969     -0.010289
Ti	      4.22729      0.07081     -4.10854         0.089335      0.071790     -0.024336
Ti	      2.11344      4.04219     -2.12488        -0.087743     -0.071053      0.026522
Ti	      4.22418      4.12315     -4.16015         0.068799     -0.016719      0.011297
O	      2.10760      2.01883     -2.09172        -0.007128     -0.032932      0.005262
O	      4.22294      4.10164     -2.08986         0.001065      0.000201      0.000726
O	      2.12112      4.10586     -4.16646         0.057528     -0.009917     -0.013007
O	      4.21259      2.05303     -0.01722         0.000431     -0.001257     -0.002279
O	      4.22017      0.00783     -2.06718        -0.058395      0.008025      0.014480
O	      2.12643      4.12366     -0.06790         0.048945      0.018402     -0.029927
O	      4.23321      2.09442     -4.14248         0.009426      0.029987     -0.002433
O	      2.10745      6.11340     -2.03263        -0.052023     -0.015184      0.028683
