# total energy = -120.42028924 eV
 
CRYSTAL
PRIMVEC
-0.000005 2.071378 2.071490 
8.295001 2.113704 -2.113848 
-0.028128 4.288855 -4.289431 
PRIMCOORD
16 1
Li	      8.28105      4.36056     -0.21961         0.005166     -0.007848      0.006654
Li	      2.04367      2.12028     -0.05012        -0.000088      0.015073     -0.016674
Li	      4.16819      4.18287     -0.04109         0.003253     -0.016333      0.014439
Li	      6.22698      4.05456     -1.98688        -0.009228      0.009707     -0.007071
Ti	      8.20395      6.34826     -2.20838        -0.019632     -0.037338      0.038737
Ti	      2.00978      4.23396     -2.16471        -0.075838     -0.043598      0.042955
Ti	      4.17320      6.35683     -2.21664         0.078591      0.045118     -0.044098
Ti	      6.27382      6.35610     -4.28682         0.027707      0.041571     -0.043149
O	      4.06171      4.29028     -2.22143        -0.125853      0.004476     -0.004184
O	      6.15126      6.29662     -2.15612        -0.030109      0.048874     -0.050746
O	      4.14721      6.32898     -4.26015         0.060808     -0.061828      0.062017
O	      6.21376      4.08876      0.05199         0.008013     -0.006915      0.007587
O	     -0.00108      2.21311     -0.14445        -0.017173      0.008066     -0.004253
O	      2.03582      4.26221     -0.12156        -0.056169      0.058993     -0.058683
O	      0.03226      4.29422     -2.22524         0.025716     -0.053472      0.053406
O	      2.12183      6.30081     -2.16004         0.124835     -0.004544      0.003063
