# total energy = -120.11801463 eV
 
CRYSTAL
PRIMVEC
0.000115 2.069013 2.069158 
4.411188 -4.224196 4.224635 
4.199681 4.118896 -4.118978 
PRIMCOORD
16 1
Li	      0.27676     -0.01186      0.01354         0.028529     -0.006957      0.005432
Li	      2.07984      2.04817      0.02313        -0.000635     -0.000779     -0.001159
Li	      4.29576      4.10630      0.03055         0.003691     -0.000024      0.002157
Li	      1.89982     -0.02099      2.09088        -0.031125      0.007768     -0.007706
Ti	      4.09307     -0.06855      0.06964        -0.466304     -0.002534      0.003522
Ti	      6.54407      2.03429      0.03574        -0.097137      0.043550     -0.045103
Ti	      4.24261     -2.17302      2.17343         0.091318     -0.046067      0.049196
Ti	      6.69414     -0.07033      2.13947         0.460105      0.007184     -0.004643
O	      4.37920      1.94196      0.12902         0.062402     -0.035507      0.027997
O	      4.39777     -0.05298      2.12246         0.011418      0.049724     -0.044458
O	      6.38848     -0.08613      0.08654        -0.010918     -0.044619      0.047069
O	      4.42735     -2.14781      4.21778        -0.058612      0.104612     -0.106221
O	      6.40671     -0.01115      4.14949        -0.051144      0.034590     -0.033982
O	      4.10531      4.12175     -2.05264        -0.422897      0.005079     -0.005113
O	      2.27074     -0.03551      0.03692         0.415769     -0.013270      0.012573
O	      6.35884      2.00901     -2.00802         0.065541     -0.102747      0.100438
