# total energy = -120.68599244 eV
 
CRYSTAL
PRIMVEC
2.053366 4.187853 2.053513 
2.036190 0.025820 -6.195420 
-2.105581 4.239612 -2.105627 
PRIMCOORD
16 1
Li	     -2.02784      4.23979     -2.17782         0.004878      0.000147     -0.005647
Li	      0.01927      6.33116     -2.17122        -0.005209     -0.000459      0.004249
Li	     -0.11345      4.23899     -4.09780         0.006102      0.000943     -0.004456
Li	      1.93490      6.33194     -4.09037        -0.007936     -0.002005      0.005033
Ti	      1.96245      4.23530     -6.16902        -0.064596     -0.016721      0.071280
Ti	     -0.09347      2.12022     -2.00769        -0.056157      0.001096      0.072869
Ti	      2.10482      4.21024     -2.15608         0.062793     -0.007691     -0.063144
Ti	      2.08582      2.12199     -4.18945         0.064916      0.009252     -0.064502
O	      1.98085      2.13959     -2.10927        -0.019328      0.029446     -0.006664
O	      0.03101      4.19056     -2.05324         0.019032     -0.021812     -0.004153
O	      0.00880      2.09595     -4.08197         0.006229     -0.029000      0.013341
O	     -0.00698      2.07865     -0.01782        -0.012152      0.013138     -0.043248
O	      2.00317      4.23479     -0.08083        -0.007274      0.030439     -0.017194
O	     -0.06256      4.22664     -6.22719        -0.040228      0.011568     -0.007681
O	     -0.03129      6.34384     -0.04197         0.038660     -0.008860      0.013162
O	      2.01864      4.25241     -4.14517         0.010271     -0.009480      0.036754
