# total energy = -120.39764857 eV
 
CRYSTAL
PRIMVEC
4.176354 0.000033 0.000013 
0.000023 4.245512 -4.124132 
0.000054 6.305033 1.997756 
PRIMCOORD
16 1
Li	      4.17498      6.34295      1.85467        -0.000168     -0.016526      0.012802
Li	      2.08737      2.03867     -0.04231        -0.000287     -0.032995      0.011451
Li	      4.17490      4.28193     -0.00667         0.000097      0.035736     -0.009249
Li	      2.08712      6.28243      0.09372        -0.000011      0.012983     -0.010854
Ti	      4.17551      2.11925     -2.03442        -0.002496      0.049724      0.119970
Ti	      2.08650      4.25267     -2.00727        -0.000077      0.056387     -0.015716
Ti	      4.17557      6.31352     -2.16665        -0.000776     -0.057244      0.022619
Ti	      2.08643      8.44693     -2.13865         0.001532     -0.051124     -0.123250
O	      4.17542      2.07490     -0.01332        -0.000998      0.004820      0.017620
O	      2.08675      4.24524     -0.03584        -0.000554      0.001369     -0.021541
O	      4.17476      4.21894     -2.06991         0.001402      0.017052      0.051241
O	      2.08727      6.34710     -2.10363        -0.001354     -0.008775     -0.056552
O	      4.17514      6.43775     -0.16091         0.000480      0.079662     -0.103396
O	      2.08711      2.12809     -2.02189         0.000644     -0.028181     -0.076763
O	      4.17465      8.43830     -2.15110         0.002444      0.019331      0.068433
O	      2.08681     10.43360     -2.01534         0.000121     -0.082218      0.113185
