# total energy = -120.53246928 eV
 
CRYSTAL
PRIMVEC
4.129892 0.000125 -0.000022 
0.000025 -0.000025 -4.040551 
2.065241 8.471264 -2.020251 
PRIMCOORD
16 1
Li	      4.12844      0.01617     -4.03859         0.002176     -0.030051     -0.001180
Li	      2.06415      2.17787     -4.03936        -0.001569     -0.003568      0.007920
Li	      4.12807      4.17744     -4.03865         0.001084      0.003928      0.000595
Li	      2.06395      6.33890     -4.03813        -0.001304      0.034158     -0.000292
Ti	      2.06351      0.00757     -2.01830        -0.004544     -0.065972     -0.000211
Ti	      4.12893      2.05379     -2.01824        -0.001348      0.090069      0.002900
Ti	      2.06358      4.30130     -2.01711        -0.002267     -0.088475     -0.011360
Ti	      4.12826      6.34884     -2.01816         0.006452      0.060727      0.000256
O	      2.06382      2.14568     -2.01855         0.001992     -0.010926      0.005193
O	      4.12840      4.21043     -2.01848        -0.004284      0.001021     -0.000179
O	      4.12863      8.45758     -2.01854        -0.003279      0.027250      0.008138
O	      4.12872      2.09518     -4.03817         0.000223      0.009071     -0.004567
O	      2.06353      6.35222     -2.01759        -0.000659     -0.048602     -0.008051
O	      2.06364      4.25858     -4.03908         0.000403      0.009498      0.008541
O	      4.12819      6.36988     -4.03850         0.003785     -0.037161     -0.002059
O	      4.12836      0.00352     -2.01770         0.003138      0.049034     -0.005646
