# total energy = -120.02834897 eV
 
CRYSTAL
PRIMVEC
0.000040 2.083772 2.083880 
8.227863 2.062385 -2.062332 
-0.052599 4.228689 -4.228876 
PRIMCOORD
16 1
Li	      0.07144      2.15963      2.00468         0.000746      0.011581     -0.012914
Li	      1.93764      2.12325     -0.04502        -0.018981      0.000919      0.000788
Li	      3.97198      4.12955      0.03511         0.018795     -0.006995      0.006504
Li	      0.07105      4.10037      0.06366        -0.006180     -0.027120      0.027909
Ti	      6.24946      4.16006     -2.07986         0.264752     -0.096374      0.098232
Ti	      1.86886      4.19514     -2.11399        -0.274962     -0.057035      0.054422
Ti	      4.14744      6.30918     -2.14452         0.072406      0.066454     -0.066939
Ti	      6.15279      6.25604     -4.17530        -0.086826      0.093545     -0.095278
O	      4.05631      4.22372     -2.14304        -0.074203      0.034270     -0.033609
O	      6.27324      6.25666     -2.09240         0.062657      0.004036     -0.002285
O	      4.05532      6.27815     -4.19718         0.005176     -0.056564      0.052958
O	      6.13616      4.14770      0.01672         0.040354     -0.004979      0.003649
O	      8.11483      4.14293     -2.06299        -0.262501      0.000410      0.001493
O	      2.01961      4.28317     -0.11865        -0.006615      0.092495     -0.090170
O	     -0.01771      4.22976     -2.14909         0.235064      0.008339     -0.007428
O	      2.07001      6.24556     -2.08072         0.030320     -0.062983      0.062667
