# total energy = -120.04682454 eV
 
CRYSTAL
PRIMVEC
0.000037 2.085277 2.085334 
4.110230 -4.257024 4.257164 
4.097565 4.250559 -4.250575 
PRIMCOORD
16 1
Li	      0.12620      2.10503      2.06431        -0.010441      0.014855     -0.015274
Li	      2.13391      2.03324      0.05127         0.023137     -0.009831      0.010839
Li	      3.97935      4.10659      0.06294         0.010673     -0.029173      0.029152
Li	      4.00589      2.19184      1.97766         0.005185      0.005474     -0.005735
Ti	      2.05815     -0.03690      2.12096         0.018967      0.029873     -0.028104
Ti	      6.06215      2.10793     -0.02381        -0.290866      0.007249     -0.003795
Ti	      4.05064     -0.02951      4.19875         0.002503     -0.047028      0.050478
Ti	      6.28749     -0.00868      2.09274         0.182409      0.086099     -0.081412
O	      4.18906      2.07470      0.00955         0.250831      0.030403     -0.029927
O	      4.17607     -0.02864      2.11276         0.045453     -0.015436      0.015805
O	      6.19415      2.09295      2.07708         0.005809     -0.063680      0.057617
O	      4.10804     -2.07780      4.16215        -0.001749      0.035739     -0.040411
O	      6.12971      0.02493      4.14487        -0.068858      0.041703     -0.044556
O	      4.07603      4.24610     -2.16188        -0.154847     -0.006613      0.006282
O	      2.05967      1.97497      2.19449        -0.025635     -0.063954      0.064402
O	      6.01538      4.19177     -0.02217         0.007432     -0.015679      0.014639
