# total energy = -92.51339577 eV
 
CRYSTAL
PRIMVEC
-0.000305 2.066781 2.067305 
8.250375 -4.227284 4.227010 
2.027638 2.101446 -4.169514 
PRIMCOORD
16 1
Li	      2.26129      1.96283      0.10630         0.028333      0.003544     -0.002927
Li	      4.12743      2.05802     -2.05818        -0.002557     -0.006430      0.005258
Li	      4.05171      0.03354     -0.03330        -0.006851     -0.013070      0.008746
Li	      6.07726     -0.07132      2.13644        -0.031035      0.003646     -0.000451
Mn	      0.10931      0.01615     -0.01481         0.107759     -0.026140      0.020867
Mn	      6.05662      2.05542      0.01050        -0.068069      0.030379     -0.027889
Ni	      8.15631     -0.02032      0.01986        -0.011684     -0.053249      0.049044
Ni	      8.19092     -2.09619      2.09547         0.020925     -0.037841      0.044296
O	      2.01237      2.25153     -2.25177         0.088741      0.033657     -0.033450
O	      6.14269      0.07683     -0.07848        -0.108043      0.008474     -0.000821
O	      6.13986     -2.15385      2.15482        -0.120375      0.121183     -0.122539
O	      8.34184     -0.06165      2.12809         0.050166      0.033722     -0.038492
O	      8.23678     -2.19497      4.26321         0.084409     -0.073370      0.074554
O	      1.91614      0.02875     -0.02662        -0.079529      0.002374     -0.005700
O	      4.22769      2.03402      0.03165         0.055550      0.000100      0.002583
O	      4.11085     -0.18159      2.24905        -0.007740     -0.026981      0.026922
