# total energy = -92.69985511 eV
 
CRYSTAL
PRIMVEC
2.093782 4.115513 2.025420 
4.148734 -4.096976 0.002156 
4.183020 0.036557 -4.118883 
PRIMCOORD
16 1
Li	      6.33802     -1.94706     -0.08234         0.011865      0.005969      0.004819
Li	      8.31477      0.04031     -0.01674         0.002189      0.004739      0.016829
Li	      4.23480      0.07074     -0.05426        -0.005531     -0.015908      0.000674
Li	      6.20100     -0.02165     -2.03670        -0.000579      0.007670     -0.012826
Mn	      6.25077      0.01506      2.00772         0.024459     -0.003295     -0.028274
Mn	      4.14461      2.05897      2.00877        -0.018249     -0.003911     -0.023000
Ni	      4.13263      2.07915     -1.99521         0.032359      0.032803     -0.004788
Ni	      4.17835     -2.02270     -2.03181         0.052780      0.036486      0.022003
O	      6.24326      0.04886      0.10770         0.001809     -0.110517      0.061963
O	      6.25726     -2.00491     -2.20129        -0.022933     -0.008850     -0.033889
O	      4.19460      2.05472      0.05475        -0.089725      0.007702      0.141327
O	      4.20515      0.05898     -2.18771        -0.018490     -0.036948     -0.054275
O	      8.46789      0.09849     -2.09923         0.028012      0.097968      0.001578
O	      4.01645     -2.14080      0.03073        -0.023949     -0.049680      0.003586
O	      6.34241      2.19576     -2.09010         0.066580      0.039341     -0.095607
O	      1.94472     -0.13198     -0.00911        -0.040597     -0.003568     -0.000123
