# total energy = -120.51834289 eV
 
CRYSTAL
PRIMVEC
2.062744 4.110877 2.062500 
2.100758 0.013410 -6.252357 
-2.088939 4.137335 -2.089106 
PRIMCOORD
16 1
Li	     -1.98876      4.13746     -2.18960         0.020537     -0.001560     -0.018046
Li	     -0.06756      6.19254     -2.04747        -0.002712      0.000247     -0.000247
Li	     -0.06708      4.13685     -4.11070        -0.000676     -0.000038     -0.002475
Li	      0.01595      4.12385     -0.04316        -0.006087     -0.000975      0.007756
Ti	      2.06343      6.19242     -4.17887        -0.017402      0.003186      0.014696
Ti	     -0.03710      2.06832     -2.05183        -0.043644      0.000076      0.044363
Ti	      2.08177      4.12382     -2.10853        -0.049396     -0.002298      0.051428
Ti	      2.10247      2.06866     -4.19110         0.046277      0.000285     -0.044781
O	      2.05638      2.03573     -2.07415        -0.042447      0.030760     -0.011733
O	      0.07058      4.06009     -2.10077         0.062429     -0.084037      0.020869
O	     -0.01455      2.10048     -4.14559         0.006839     -0.024932      0.039558
O	      2.08103      2.06154     -6.27071         0.001255     -0.001532     -0.071555
O	      2.07378      4.18778     -0.09742        -0.015538      0.083797     -0.058659
O	     -0.00296      4.15094     -6.26874        -0.036682     -0.002055     -0.005253
O	      2.09288      6.21267     -6.25910         0.069818      0.004726     -0.002445
O	      2.09089      4.12400     -4.17549         0.007432     -0.005650      0.036523
