# total energy = -120.40664279 eV
 
CRYSTAL
PRIMVEC
4.105082 -0.000009 -0.000012 
-0.000001 4.194460 -4.153114 
-0.000079 6.286617 2.071373 
PRIMCOORD
16 1
Li	      4.10501      0.09200     -0.03503        -0.000822      0.004053     -0.010307
Li	      2.05240      2.09508     -0.10272        -0.000401     -0.000290      0.018152
Li	      4.10442      4.07470     -0.00740         0.001928     -0.024819      0.001414
Li	      0.00041      2.10426     -1.89183        -0.002717     -0.007972      0.022963
Ti	      2.05251      6.26523      0.01669        -0.002922     -0.021674     -0.003433
Ti	      2.05218      4.18000     -2.08956         0.001924     -0.096924      0.029792
Ti	      4.10455      6.27788     -2.16788         0.001295     -0.000829     -0.214662
Ti	      2.05235      8.42861     -2.09635        -0.002040      0.120876     -0.035434
O	      4.10475      2.08446      0.11741        -0.000522      0.007521      0.258253
O	      2.05211      4.21816     -0.01748        -0.000091      0.014496     -0.044602
O	      0.00002      4.18963     -2.06198        -0.003622      0.070659     -0.016343
O	      2.05202      6.29713     -2.12692         0.000225      0.007554     -0.052534
O	      4.10461      6.29205     -0.02022         0.002323     -0.008334      0.017806
O	      2.05234      8.37478     -0.03441        -0.000905      0.039069     -0.036424
O	      4.10424      8.36835     -2.08420         0.005211     -0.065638     -0.018670
O	      2.05215      4.17883     -4.13353         0.001137     -0.037747      0.084030
