# total energy = -120.05748658 eV
 
CRYSTAL
PRIMVEC
4.168301 -0.000091 -0.000027 
0.000028 -0.000087 -4.122199 
2.083975 8.289032 -2.060970 
PRIMCOORD
16 1
Li	      4.17072      0.11839     -4.12422         0.000598     -0.002116      0.003435
Li	      2.08643      1.89885     -4.12405         0.002672     -0.037629     -0.002746
Li	      4.17106      4.02025     -4.12378        -0.002162      0.010064     -0.000980
Li	      2.08660      0.08905     -2.06336         0.001658     -0.004149      0.002532
Ti	      2.08719      6.28785     -4.12336        -0.002924      0.141485     -0.002979
Ti	      4.17085      2.01048     -2.06262        -0.007154     -0.038880     -0.000220
Ti	      2.08651      4.12842     -2.06276         0.008609     -0.108295      0.005403
Ti	      4.17096      6.34690     -2.06292        -0.002174      0.332269      0.001323
O	      2.08687      2.06654     -2.06285        -0.004008      0.099228     -0.001921
O	      4.17075      4.15145     -2.06270         0.001672     -0.046700     -0.002915
O	      4.17079      8.16757     -2.06276        -0.000946     -0.399126      0.000310
O	      4.17075      2.07509     -4.12407         0.001709     -0.000575      0.002550
O	      2.08672      6.28733     -2.06241         0.000639      0.021242      0.000167
O	      2.08677      4.18662     -4.12360        -0.000198      0.001088     -0.001647
O	      4.17091      6.19185     -4.12370         0.002350      0.056111     -0.003258
O	      4.17082      0.02360     -2.06272        -0.000342     -0.024018      0.000946
