# total energy = -119.70338163 eV
 
CRYSTAL
PRIMVEC
0.000009 2.082452 2.082590 
8.550489 2.093913 -2.093986 
0.000481 4.186640 -4.186958 
PRIMCOORD
16 1
Li	      0.30580      4.18734     -4.18757         0.003960     -0.000424     -0.001310
Li	      2.13961      2.08631     -0.00553         0.002638      0.005969     -0.004724
Li	      3.97220      2.09361     -2.09248        -0.005570     -0.000033     -0.002886
Li	      2.14000      4.18210     -2.10119         0.003289     -0.004617      0.005166
Ti	      6.41213      4.13949     -2.05872         0.025594      0.113365     -0.112028
Ti	      0.15567      4.17596     -0.01241         0.293101     -0.006765      0.007122
Ti	      4.12373      6.26827     -2.10494        -0.239686      0.008033     -0.007824
Ti	      6.41430      6.31680     -4.23631        -0.001956     -0.113679      0.114423
O	      4.33539      4.21219     -2.13161        -0.061668      0.011865     -0.010678
O	      6.41431      6.26932     -2.10614        -0.028290     -0.000347      0.000876
O	      4.33665      6.24220     -4.16119        -0.056012     -0.012210      0.012452
O	      6.41332      4.17605     -0.01270        -0.022182     -0.000364      0.001904
O	      8.49089      4.21424     -2.13347         0.038008      0.043923     -0.043467
O	      1.98935      4.17593     -0.01220        -0.395502      0.000432     -0.001274
O	      8.49114      6.24299     -4.16168         0.047653     -0.041143      0.039004
O	      2.28931      6.26952     -2.10576         0.396621     -0.004004      0.003246
