# total energy = -120.57401181 eV
 
CRYSTAL
PRIMVEC
2.089791 4.141070 2.090013 
2.089417 0.000033 -6.269701 
-2.089749 4.141056 -2.090045 
PRIMCOORD
16 1
Li	     -1.91961      4.13994     -2.26176         0.011441      0.000814     -0.011029
Li	      0.00197      6.21209     -2.09008        -0.002912     -0.003667      0.001099
Li	     -0.17037      4.14002     -4.00785        -0.008544      0.000656      0.008947
Li	      0.00232      2.06933     -2.09023        -0.004801     -0.000312      0.000835
Ti	      2.08985      6.21169     -4.18061         0.003013      0.029432     -0.003593
Ti	      2.07069      4.14046     -6.25298         0.002258      0.004035     -0.027345
Ti	      2.11032      4.14041     -2.10921        -0.004326      0.005024      0.023158
Ti	      2.08983      2.06717     -4.18058         0.002519     -0.013341     -0.004328
O	      0.03335      6.17398     -4.21495         0.050708      0.036763     -0.056010
O	      0.09886      4.14060     -1.99166         0.034149     -0.003030      0.037691
O	      0.03309      2.10666     -4.21435         0.054874     -0.037491     -0.061264
O	      2.05663      2.03354     -6.23655        -0.049240      0.034803      0.058386
O	      1.99223      4.14054     -0.10014        -0.030180     -0.003259     -0.039011
O	      0.00071      4.14021     -6.27181        -0.002294     -0.007196      0.003992
O	      2.05690      6.24707     -6.23709        -0.053272     -0.035204      0.062101
O	      2.09082      4.14009     -4.18139        -0.003393     -0.008026      0.006369
