# total energy = -120.06455043 eV
 
CRYSTAL
PRIMVEC
4.144914 -0.000183 -0.000189 
0.000006 4.144415 -4.144410 
-0.000336 6.263282 2.118896 
PRIMCOORD
16 1
Li	      0.00338      4.18884     -4.10202        -0.007964      0.017322      0.019456
Li	      2.07440      2.08226      0.00874        -0.002397      0.001797      0.001422
Li	      0.00009      4.11885     -0.02382         0.003443     -0.017614     -0.021236
Li	      2.07394      4.15422     -2.06465        -0.000706      0.000150      0.002659
Ti	      2.07340      6.22766      0.05351        -0.000111     -0.112405      0.097820
Ti	      0.00099      2.14964     -1.99674         0.001453      0.076727      0.087400
Ti	      0.00079      6.15890     -2.12962         0.003032     -0.084992     -0.084065
Ti	      2.07330      8.34179     -2.05846         0.000735      0.101614     -0.119361
O	      0.00101      2.08165      0.00914         0.000920     -0.000411      0.003721
O	      2.07344      4.24699      0.10331        -0.001224      0.063607      0.057513
O	      0.00124      4.15388     -2.06315        -0.001394     -0.001063      0.000197
O	      2.07328      6.20273     -2.08530         0.000756     -0.026135     -0.031505
O	      0.00078      6.27853      0.00444         0.002247     -0.010658      0.007743
O	      2.07337      2.10368     -2.03982         0.001816      0.030324      0.035948
O	      0.00075      8.29282     -2.01154         0.001756      0.008544     -0.005056
O	      2.07378      6.17794      2.03467        -0.002359     -0.046805     -0.052656
