# total energy = -118.28187083 eV
 
CRYSTAL
PRIMVEC
4.132546 -0.000206 0.000073 
-0.000074 -0.000276 -4.132200 
2.066001 8.470388 -2.065606 
PRIMCOORD
16 1
Li	      4.13478      0.36471     -4.12856        -0.000580     -0.033028      0.000331
Li	      2.06770      2.11637     -4.12796        -0.002200     -0.000875      0.000294
Li	      4.13133      3.87055     -4.12756         0.001724      0.036230      0.002362
Li	      4.13249      2.11764     -2.05988         0.002420     -0.004945     -0.005328
Ti	      2.06884      6.35407     -4.12629        -0.004744      0.011812     -0.002757
Ti	      2.06776      0.15547     -2.06279         0.000802      0.031958      0.000210
Ti	      2.06570      4.07500     -2.06173         0.000657     -0.077644      0.000596
Ti	      4.13264      6.35397     -2.06452        -0.002651      0.009301      0.004198
O	      2.06635      2.11897     -2.06179         0.000956      0.011467     -0.000479
O	      4.13195      4.30322     -2.06190         0.011929     -0.028539     -0.013273
O	      4.13388      8.40384     -2.06264        -0.013913      0.043496      0.008375
O	      4.13222      2.11733     -4.12767         0.002693      0.006240     -0.000458
O	      2.06640      6.30422     -2.06068         0.001165      0.020782     -0.000873
O	      2.06598      4.30383     -4.12783         0.013662     -0.034247     -0.009064
O	      4.13464      6.40013     -4.13019         0.000499     -0.033898      0.003366
O	      2.06814      8.40382     -4.12833        -0.012419      0.041890      0.012498
