# total energy = -120.27849621 eV
 
CRYSTAL
PRIMVEC
2.078686 4.214863 2.078339 
2.074221 0.000419 -6.231153 
-2.078853 4.215340 -2.078793 
PRIMCOORD
16 1
Li	      2.06633      4.21618      2.06526        -0.008207     -0.000823     -0.008031
Li	     -0.09601      6.32442     -2.06281         0.023850     -0.001657     -0.016725
Li	      2.08948      6.32451     -4.24850        -0.015996     -0.001976      0.026297
Li	     -0.01229      4.21595     -0.01327        -0.009353      0.000501     -0.007683
Ti	      0.06164      4.08947     -4.09182         0.013784     -0.104799      0.014559
Ti	     -0.10223      2.10881     -2.06901        -0.081665     -0.001415      0.011023
Ti	      2.14031      4.34246     -2.01344         0.015965      0.109788      0.018314
Ti	      2.08314      2.10876     -4.25421         0.018285     -0.000206     -0.084657
O	      1.99602      2.10986     -2.15686         0.019494     -0.007162      0.015244
O	      0.08659      4.17781     -2.06763         0.030140     -0.013659     -0.048540
O	      2.02770      6.32349     -2.12550         0.009791      0.001443      0.014897
O	      2.06383      2.10876     -6.20746        -0.007100      0.002310      0.065450
O	      2.16634      4.25454      0.01134         0.021055      0.015130     -0.055099
O	      0.00761      4.25492     -6.14470        -0.057184      0.015073      0.027584
O	      0.02353      6.32339     -0.01086         0.078306      0.001500     -0.001972
O	      2.08596      4.17807     -4.06649        -0.051166     -0.014048      0.029338
