# total energy = -91.83814734 eV
 
CRYSTAL
PRIMVEC
1.964961 4.137839 2.122174 
4.018841 -4.166635 -0.029625 
4.021270 -0.027877 -4.276628 
PRIMCOORD
16 1
Li	      6.05352     -2.09871     -0.10464         0.024624      0.006140      0.004164
Li	      5.99146     -4.09975     -2.17802        -0.023236     -0.015868      0.006004
Li	      5.98922     -2.11573     -4.21613        -0.022210     -0.008030     -0.006460
Li	      6.05133     -0.10481     -2.22353         0.027955      0.006413     -0.003858
Mn	      4.05539     -0.01827     -4.24316         0.009474     -0.027260     -0.042126
Mn	      3.94091     -0.03914     -0.03642        -0.023545      0.025903      0.008820
Ni	      7.97781     -2.11360     -2.16497        -0.021118      0.000950     -0.029705
Ni	      4.06476     -2.09662     -2.15063         0.021338      0.011420      0.027005
O	      5.90802      0.00019      0.14413         0.015246     -0.100822      0.026160
O	      6.02289     -2.08303     -2.14949         0.000753     -0.008748     -0.006016
O	      4.03349      1.87874     -0.11515        -0.106003     -0.013873      0.092570
O	      4.03622     -0.01019     -2.26279         0.002899     -0.009400     -0.076270
O	      8.10390     -0.08602     -2.18780         0.032400      0.109424      0.068563
O	      4.00539     -2.10118     -0.02684         0.001982     -0.027600      0.010952
O	      5.95847      2.20677     -2.07266         0.098947      0.044575     -0.091372
O	      1.98648     -0.01494     -0.02774        -0.039506      0.006776      0.011569
