# total energy = -120.51479266 eV
 
CRYSTAL
PRIMVEC
4.135025 0.000063 0.000056 
0.000007 4.153249 -4.153711 
0.000120 6.279068 2.126070 
PRIMCOORD
16 1
Li	      0.00203      0.10175     -0.09979         0.000457     -0.014277      0.007997
Li	      2.07026      1.95337     -0.12650        -0.002016     -0.007345      0.000507
Li	      2.06895      6.40698      0.17412         0.001546      0.005027     -0.000187
Li	      0.00216      1.97752     -1.97540        -0.000627      0.014431     -0.015807
Ti	      0.00228      4.17970      0.02303        -0.000456      0.009513      0.007015
Ti	      2.06958      4.15456     -2.07822         0.000702      0.091056      0.089851
Ti	      0.00190      6.25604     -2.05330         0.001270      0.005584      0.009610
Ti	      2.07008      8.35998     -2.02640        -0.000590     -0.094781     -0.092007
O	      0.00189      2.16481      0.08548         0.001980      0.122655      0.122397
O	      2.06983      4.18070      0.02436        -0.002207     -0.003534     -0.002040
O	      0.00208      4.14884     -2.08426        -0.001012      0.000224     -0.000634
O	      2.06954      6.25695     -2.05249        -0.000505      0.001919     -0.004510
O	      0.00183      6.19504     -0.03793         0.002687     -0.129160     -0.124986
O	      2.06956      2.14799     -2.14679         0.000490      0.102448     -0.101931
O	      0.00269      8.36376     -2.02289        -0.004227     -0.001531      0.002581
O	      2.06943      4.08642     -4.08494         0.002508     -0.102228      0.102142
