# total energy = -119.84283046 eV
 
CRYSTAL
PRIMVEC
4.132813 -0.000057 -0.000045 
0.000045 -0.000006 -4.132809 
2.066277 8.556170 -2.066385 
PRIMCOORD
16 1
Li	      2.06722      8.55553     -6.19754        -0.001644      0.000407     -0.000142
Li	      2.06753      1.78199     -4.13074         0.000003     -0.029906     -0.000757
Li	      2.06690      6.77507     -4.13088         0.000491      0.028730     -0.001309
Li	      2.06648      0.00006     -2.06464         0.002000     -0.001906     -0.000830
Ti	      4.13640      4.27940     -4.13145        -0.000646      0.006197     -0.001240
Ti	      4.13347      2.05471     -2.06465         0.001748     -0.392732     -0.000712
Ti	      2.06292      4.27978     -2.06455         0.005869      0.006588     -0.001008
Ti	      4.13380      6.50093     -2.06501        -0.000755      0.398638      0.002426
O	      2.06664      2.18884     -2.06479        -0.000647      0.002768      0.001938
O	      4.12931      4.27773     -2.06511         0.000410     -0.007911     -0.001982
O	      4.13355      8.34716     -2.06469        -0.001807     -0.315698      0.000101
O	      4.13379      2.18829     -4.13130        -0.003272      0.007137      0.004633
O	      2.06693      6.37031     -2.06477         0.004375     -0.016236     -0.001557
O	      2.06868      4.27935     -4.13124        -0.006204      0.000804      0.002976
O	      4.13375      6.36963     -4.13130         0.001791     -0.012213     -0.001487
O	      4.13358      0.20978     -2.06466        -0.001712      0.325331     -0.001049
