# total energy = -120.41280570 eV
 
CRYSTAL
PRIMVEC
0.000025 2.082094 2.081925 
4.204819 -2.119656 2.119498 
4.189494 6.343215 -6.342586 
PRIMCOORD
16 1
Li	      0.19996      0.04924     -0.04546         0.027608     -0.021731      0.020576
Li	      2.08509      2.06841      0.01719         0.003459     -0.014286      0.014420
Li	      4.04485      2.01960     -2.01583         0.004938      0.016915     -0.017365
Li	      2.10880     -0.00710      2.09302        -0.013117      0.005564     -0.005010
Ti	      6.35223      4.19816     -2.11259         0.015311      0.016215     -0.016347
Ti	      4.08562     -0.03892      0.04318        -0.364550     -0.044513      0.041134
Ti	      2.16127      4.26809     -2.18233         0.119896      0.010071     -0.010743
Ti	      4.06284      4.24212     -4.23829        -0.085472      0.023199     -0.023819
O	      4.23447      4.23067     -2.14487         0.054186      0.005617     -0.003812
O	      4.28205      2.02579      0.05979         0.007203     -0.071684      0.071196
O	      6.10620      2.13915     -2.13558        -0.102010      0.016706     -0.018140
O	      4.26730      0.05909      2.02678        -0.009006      0.103078     -0.101694
O	      2.07623      2.22203     -2.21842        -0.051709      0.047268     -0.044324
O	      4.20241      6.30558     -4.21971        -0.014801     -0.006907      0.004884
O	      2.25797      0.01042     -0.00655         0.423191     -0.003252      0.003836
O	      6.22312      4.14875     -4.14533        -0.015126     -0.082260      0.085207
