# total energy = -119.76719006 eV
 
CRYSTAL
PRIMVEC
-0.000023 2.080918 2.080886 
4.178707 -2.089711 2.089620 
4.287180 6.375815 -6.375751 
PRIMCOORD
16 1
Li	      0.14610      0.12817     -0.12604        -0.004807      0.026475     -0.026731
Li	      2.08185      2.11771     -0.03343        -0.021528      0.005598     -0.007941
Li	      4.03516      2.04076     -2.03870        -0.022097     -0.016004      0.016852
Li	      4.20140      0.01879     -0.01674        -0.006929      0.008866     -0.009891
Ti	      6.27366      4.30477     -2.22235        -0.097233      0.049582     -0.049216
Ti	      2.23992      0.02632      2.05618         0.349879      0.019065     -0.018684
Ti	      6.14740      2.11604     -0.03351        -0.448629     -0.125180      0.126118
Ti	      4.39927      4.21217     -4.21086         0.122533     -0.009320      0.012137
O	      4.16526      4.23565     -2.15311        -0.067691      0.012158     -0.012851
O	      4.33043      2.16052     -0.07775         0.459101      0.002719     -0.002283
O	      6.39874      2.15389     -2.15241         0.039332     -0.013386      0.014317
O	      4.07951      0.01877      2.06387        -0.357415     -0.010167      0.010187
O	      2.10657      2.21730     -2.21530        -0.014611      0.125134     -0.125983
O	      4.24166      6.27374     -4.19124        -0.034751     -0.038843      0.038292
O	      2.07502     -0.06824      0.06992         0.009199     -0.102356      0.102277
O	      6.52066      4.30237     -4.30074         0.095646      0.065659     -0.066598
