# total energy = -120.33360741 eV
 
CRYSTAL
PRIMVEC
-0.000002 2.080766 2.080740 
4.109708 -2.140661 2.140558 
4.026167 6.339438 -6.339234 
PRIMCOORD
16 1
Li	      0.06574      0.00996     -0.00622         0.004440      0.003069     -0.006629
Li	      2.03660      2.08972     -0.00991        -0.001848      0.000990      0.002210
Li	      4.00675      2.09275     -2.09006        -0.003139     -0.009544      0.007784
Li	      4.04952      4.21912     -4.21712        -0.001578      0.000892     -0.002637
Ti	      6.10485      4.18995     -2.10745        -0.003002     -0.002145      0.002346
Ti	      5.98895      6.28876     -4.20573        -0.102857     -0.109170      0.105786
Ti	      4.09059     -0.02109      0.02144         0.000625      0.004189     -0.002667
Ti	      2.10973      4.23132     -2.14941         0.095290      0.110658     -0.106771
O	      4.08147      4.20062     -2.11870        -0.048300     -0.005496      0.006956
O	      4.13299      2.03967      0.04175         0.029787     -0.054420      0.055530
O	      6.11899      2.09677     -2.09551        -0.009637     -0.030528      0.033189
O	      4.04893     -0.00077      2.08177        -0.029395      0.055152     -0.050255
O	      2.01382      2.14752     -2.14537        -0.076412     -0.034620      0.028931
O	      4.01725      6.31921     -4.23588         0.047459      0.008034     -0.010077
O	      2.05770     -0.04768      0.04922         0.083004      0.036732     -0.035451
O	      6.08926      4.20222     -4.20019         0.015564      0.026205     -0.028246
