# total energy = -119.92717829 eV
 
CRYSTAL
PRIMVEC
-0.000184 2.096330 2.096885 
4.105811 -2.106713 2.106901 
4.155717 6.368831 -6.370834 
PRIMCOORD
16 1
Li	      0.14347      2.15579      2.03356         0.032379      0.004112     -0.003555
Li	      2.00352      2.07351      0.01949        -0.002000     -0.005580      0.007362
Li	      2.10449      0.07073      2.02302        -0.000329      0.004818     -0.004768
Li	      2.02623      4.12959     -2.03424        -0.000183      0.004492     -0.005181
Ti	      4.05308      4.22811     -0.03654        -0.174678     -0.016659      0.017654
Ti	      6.16747      4.24654     -2.15090         0.002812      0.090733     -0.089512
Ti	      4.06222      2.09574      2.09511        -0.353887     -0.060316      0.059823
Ti	      4.12889      4.25335     -4.25411         0.065054     -0.064097      0.062241
O	      4.02576      4.24418     -2.14868         0.056525      0.024406     -0.026229
O	      4.15204      2.12885     -0.03436         0.010098     -0.006326      0.008207
O	      6.16658      4.23419     -0.04212         0.023992      0.040553     -0.041348
O	      4.15290      0.09472      1.99931         0.032596      0.086376     -0.085324
O	      2.09958      4.23699     -0.04547         0.129984      0.001685     -0.003574
O	      4.13718      6.30969     -4.21375        -0.080403     -0.044927      0.044987
O	      2.22131      2.11435      2.07611         0.329684      0.009669     -0.007030
O	      6.18402      4.19405     -4.19446        -0.071643     -0.068939      0.066248
