# total energy = -119.87025062 eV
 
CRYSTAL
PRIMVEC
0.000015 2.087410 2.086672 
4.144555 -2.101244 2.100559 
4.252417 6.413375 -6.411391 
PRIMCOORD
16 1
Li	      0.07754      2.07350      2.09730         0.038128     -0.006517      0.005688
Li	      1.94603      2.00632      0.08007         0.014877     -0.014328      0.014574
Li	      6.24704      6.41857     -4.32989        -0.039042      0.005494     -0.006274
Li	      4.37805      6.48569     -2.31275        -0.014683      0.015478     -0.014389
Ti	      4.24950      4.18168     -0.00886         0.139236     -0.106940      0.107325
Ti	      6.46880      4.31374     -2.22821         0.446773      0.040002     -0.046098
Ti	      3.99995      2.07742      2.09620        -0.446608     -0.041740      0.042151
Ti	      6.21911      2.20895     -0.12355        -0.139910      0.106547     -0.107681
O	      4.18708      4.18657     -2.10130        -0.076552     -0.015137      0.016390
O	      4.08112      2.07897      0.00731        -0.076238     -0.065853      0.064701
O	      6.38753      4.31174     -0.13958         0.077053      0.068587     -0.065961
O	      4.17669      0.10133      1.98561        -0.008657      0.100501     -0.102752
O	      2.13686      4.30535     -0.13188         0.078912      0.015173     -0.014144
O	      4.15740      6.39824     -4.31277        -0.414074     -0.016188      0.017312
O	      2.16681      2.09371      2.07995         0.411158      0.017049     -0.018081
O	      6.29200      6.28952     -2.11800         0.009628     -0.102130      0.107239
