# total energy = -120.04343986 eV
 
CRYSTAL
PRIMVEC
0.000008 2.082760 2.082736 
8.236094 0.017143 -0.017102 
0.017524 4.236698 -4.236666 
PRIMCOORD
16 1
Li	      0.13526      2.17657      1.98802        -0.027098      0.000270      0.002552
Li	      2.17593      2.06068      0.02316         0.018699      0.005860     -0.007296
Li	      4.01746      2.03084     -2.03031         0.018631     -0.030876      0.030522
Li	      4.04648      0.05948     -0.05876         0.033988      0.003619     -0.003658
Ti	      6.18005      4.20536     -2.12227         0.009527      0.067507     -0.066530
Ti	      6.06238      2.08846     -0.00521        -0.315001     -0.039783      0.039128
Ti	      8.18492      2.17812     -2.17730        -0.085479     -0.033160      0.031704
Ti	      2.21935      4.23893     -2.15550         0.192742      0.048221     -0.049128
O	      4.20775      2.08049      0.00278         0.297337     -0.002422      0.003081
O	      6.06590      2.10462     -2.10423        -0.019644     -0.010867      0.011343
O	      4.12100      4.21140     -2.12808        -0.181965      0.004955     -0.005441
O	      6.21671      4.23933     -4.23887        -0.013034     -0.006212      0.006028
O	      8.20487      2.19338     -0.11007         0.044203      0.059762     -0.060065
O	      2.02527      2.18361     -2.18294         0.004193      0.064265     -0.064283
O	      0.06980      4.24027     -2.15695         0.021379     -0.033808      0.034597
O	      2.09561      4.15253     -4.15197         0.001523     -0.097329      0.097447
