# total energy = -120.52277896 eV
 
CRYSTAL
PRIMVEC
2.071351 4.118291 2.070968 
2.085908 -4.133199 2.086174 
4.168839 0.000316 -4.168734 
PRIMCOORD
16 1
Li	      4.22275     -0.01427      4.08839         0.002496      0.002047     -0.002771
Li	      2.02327      2.05651      0.04926         0.005688      0.006570     -0.006479
Li	      4.10333     -4.13169      0.06972        -0.002905      0.001505     -0.003502
Li	      2.13656     -0.00344      2.01839        -0.001100     -0.001302      0.007291
Ti	      6.24703     -2.06917     -0.00766        -0.057173      0.016054      0.043776
Ti	      2.04911     -2.06189      0.03882         0.058759     -0.021269     -0.058218
Ti	      4.16807     -0.00793     -0.00975         0.019616      0.002319      0.007997
Ti	      4.17374     -2.06515     -2.08806        -0.060235     -0.007366      0.061935
O	      4.15228     -2.09373      0.03025         0.025714     -0.046217     -0.028002
O	      2.15556     -0.07730     -0.00890         0.030840     -0.053141      0.028302
O	      4.12776      2.08105      0.00133         0.028259      0.033166     -0.015786
O	      6.24831     -2.07744     -2.08380        -0.058631      0.016744     -0.034228
O	      4.16568      0.06630      1.99846        -0.031809      0.071715     -0.046737
O	      4.17745     -0.01371     -2.07246         0.016582     -0.004585      0.012167
O	      6.23969      2.06773     -2.09002         0.043441     -0.020838      0.052432
O	      6.23446      0.00462     -0.02045        -0.019541      0.004597     -0.018180
