# total energy = -118.43902374 eV
 
CRYSTAL
PRIMVEC
-0.000006 -0.000016 4.109211 
4.109503 0.000003 -0.000006 
-0.000004 8.600469 0.000062 
PRIMCOORD
16 1
Li	      4.10919      0.31609      4.10765         0.000091     -0.041276     -0.000501
Li	      2.05420      2.21091      4.10763        -0.000090      0.024685     -0.001169
Li	      4.10918      3.88286      4.10815        -0.000097      0.038222     -0.000382
Li	      4.10909      2.21084      2.05330        -0.000001      0.025110     -0.001844
Ti	      2.05471      6.38087      4.10778        -0.000360     -0.037767     -0.002808
Ti	      2.05447      0.27662      2.05281         0.000029      0.489689      0.000204
Ti	      2.05463      4.37591      2.05366        -0.001106     -0.068583     -0.003172
Ti	      0.00009      6.38096      2.05407        -0.000265     -0.038787     -0.003966
O	      4.10938      8.45380      2.05307         0.000421     -0.005973      0.000512
O	      2.05437      2.07859      2.05316         0.000360     -0.421093      0.000836
O	      2.05455      8.45380      4.10752         0.000059     -0.006733      0.001411
O	      4.10932      4.34175      2.05333         0.000767      0.035394      0.001970
O	      2.05489      6.54440      2.05301        -0.001072      0.024211      0.002903
O	      4.10897      2.10887      4.10773         0.001416     -0.049920      0.001748
O	      2.05455      4.34171      4.10801         0.000329      0.035113      0.002449
O	      4.10949      6.40655      4.10823        -0.000481     -0.002292      0.001810
