# total energy = -120.44064007 eV
 
CRYSTAL
PRIMVEC
2.070271 4.227567 2.070342 
2.070268 -4.227643 2.070565 
4.106431 0.000114 -4.106816 
PRIMCOORD
16 1
Li	      6.17606     -4.22516     -2.03605         0.003999     -0.002122      0.000229
Li	      2.06451      2.11338      0.01053         0.006601     -0.006740      0.002321
Li	      4.12367     -4.22524      0.01822         0.003775     -0.002916     -0.002336
Li	      6.18446      2.11567      0.02239        -0.005095     -0.009176     -0.000737
Ti	      6.18438     -2.10946      0.02348        -0.005368      0.017286     -0.004292
Ti	      2.07199     -0.00265      2.06982        -0.008910     -0.004104      0.003817
Ti	      2.06503     -2.10877      0.01034         0.007095      0.012599      0.000160
Ti	      4.12551     -0.00263      0.01756        -0.004225     -0.000232     -0.009872
O	      4.12476     -2.08652      0.01665         0.001167      0.036214      0.002916
O	      2.07701     -0.01494      0.02161         0.046773     -0.025776      0.053296
O	      4.12508      2.08527      0.01643        -0.003319     -0.043272      0.002030
O	      2.07141     -2.08637      2.06982         0.002150      0.034582      0.006706
O	      4.11667      0.01890      2.06272        -0.052716      0.030188     -0.057886
O	      4.13273      0.01898     -2.02851         0.060723      0.032465      0.059013
O	      2.07201      2.08467      2.07027        -0.005943     -0.036846     -0.003261
O	      6.17285     -0.01458      0.01191        -0.046706     -0.032150     -0.052103
