# total energy = -118.72130099 eV
 
CRYSTAL
PRIMVEC
-0.000055 2.077263 2.077235 
8.497233 -0.000007 -0.000102 
0.000072 4.243400 -4.243422 
PRIMCOORD
16 1
Li	      0.27356      6.31980     -2.16640        -0.043794     -0.000999      0.001151
Li	      2.16569      1.86447      0.21200         0.007443      0.020612     -0.020632
Li	      3.90468      6.32017     -2.16578         0.052581     -0.002141      0.001620
Li	      2.16554      4.45469     -2.37776         0.008348     -0.022952      0.021519
Ti	      4.18653      4.19702     -0.04365         0.067131      0.008994     -0.007443
Ti	      6.31520      4.23873     -2.16230        -0.075145     -0.076470      0.076197
Ti	      6.31474      2.08062     -0.00396        -0.070470      0.073722     -0.075202
Ti	      0.33474      4.19737     -0.04395         0.407925      0.005688     -0.002936
O	      4.28196      2.13683     -0.06050        -0.054039      0.088201     -0.088285
O	      6.37110      4.19826     -0.04430         0.057416     -0.001205     -0.001955
O	      4.28260      4.18115     -2.10473        -0.050402     -0.093606      0.092955
O	      6.36787      6.31969     -2.16640        -0.002439      0.000738      0.003477
O	      8.37265      2.20199     -0.12565         0.015606      0.088817     -0.088654
O	      2.16144      4.19761     -0.04411        -0.327087     -0.001047      0.000260
O	      8.37251      4.11618     -2.03976         0.015684     -0.089454      0.089119
O	      2.08167      6.31973     -2.16583        -0.008760      0.001104     -0.001192
