# total energy = -120.31272704 eV
 
CRYSTAL
PRIMVEC
2.056606 4.170012 2.057095 
2.056589 -4.169975 2.057037 
4.154334 -0.000025 -4.155279 
PRIMCOORD
16 1
Li	      6.21066      4.16957     -2.09756         0.000083     -0.000067     -0.000232
Li	      1.96101      2.08413      0.09781         0.001032      0.000719     -0.003172
Li	      6.21151      0.00041     -2.09701        -0.003220      0.000406     -0.001761
Li	      6.30465      2.08576     -0.13771         0.003423     -0.002220      0.002038
Ti	      6.18894      0.00130      2.03575         0.007029     -0.000009      0.006627
Ti	      6.22956     -2.08485     -0.06092         0.058041     -0.002322     -0.059958
Ti	      2.03668     -2.08455      0.02055        -0.058192      0.000698      0.058249
Ti	      4.13252     -0.00220     -0.02085        -0.000163      0.003208     -0.003020
O	      4.13302     -2.08502     -0.02103        -0.000431     -0.001759      0.001107
O	      2.08483      0.00834     -0.03086         0.056849     -0.052043     -0.048131
O	      4.13286      2.08495     -0.02036        -0.002602     -0.005219      0.000790
O	      6.21071     -2.08558     -2.09757        -0.003795      0.003635     -0.005116
O	      4.14247     -0.00825      2.02523         0.043773      0.050271     -0.040710
O	      4.12316     -0.00842     -2.06711        -0.046017      0.052132      0.046614
O	      6.21077      2.08520     -2.09736        -0.006454     -0.001023     -0.003242
O	      6.18016      0.00779     -0.01103        -0.049355     -0.046408      0.049918
