# total energy = -119.80048248 eV
 
CRYSTAL
PRIMVEC
-0.000032 -0.000005 4.128435 
4.128629 0.000036 -0.000032 
0.000169 8.603619 -0.000066 
PRIMCOORD
16 1
Li	      4.12527      0.00058      4.12774         0.001763     -0.002486      0.000079
Li	      2.06123      1.78499      4.12788         0.000259     -0.051906      0.000263
Li	      2.06082      0.00092      2.06372         0.002293     -0.002381     -0.000839
Li	      4.12550      6.81853      2.06333         0.001561      0.052572      0.000178
Ti	      4.12512      4.30144      4.12729         0.002655      0.008510     -0.000711
Ti	      2.06138      6.55453      4.12734        -0.000905      0.288340      0.002326
Ti	      4.12545      2.05002      2.06337         0.000525     -0.286118      0.001739
Ti	      2.06141      4.30178      2.06374         0.001771     -0.000578     -0.001544
O	      4.12567      0.20434      2.06354        -0.000825      0.303496     -0.000408
O	      2.06129      2.20094      2.06365        -0.000904     -0.016264     -0.000800
O	      2.06130      8.39966      4.12766         0.000871     -0.300729     -0.000772
O	      4.12596      4.29536      2.06294        -0.004797      0.020652      0.001873
O	      2.06147      6.40230      2.06324        -0.000838      0.018856      0.001191
O	      4.12546      2.20152      4.12786        -0.000492     -0.022055     -0.001477
O	      2.06102      4.30946      4.12786        -0.002317     -0.023635      0.000088
O	      4.12567      6.40276      4.12761        -0.000620      0.013726     -0.001184
