# total energy = -120.67273505 eV
 
CRYSTAL
PRIMVEC
2.095169 4.133864 2.056956 
4.182080 -4.144660 0.029880 
4.167461 0.015259 -4.121203 
PRIMCOORD
16 1
Li	      6.31154     -0.00434      1.97062        -0.003646      0.005995     -0.008299
Li	      6.27248     -2.07234      0.02865        -0.000563      0.000151     -0.000628
Li	      2.05092      0.00485     -1.94357         0.002597     -0.006653      0.008368
Li	      4.18126      0.00007      0.01409         0.000514     -0.000334     -0.002425
Ti	      4.17426      2.08001     -2.06166        -0.003847     -0.001398     -0.001430
Ti	      4.17406      2.00245      2.03496        -0.045662      0.037476     -0.046600
Ti	      4.18867     -2.00205     -2.00813         0.046056     -0.036756      0.057673
Ti	      6.26492      0.00773     -2.04690        -0.001094     -0.001993     -0.001189
O	      4.17457     -2.07849      0.03623        -0.015061     -0.007379      0.040867
O	      6.27079      0.11344     -0.07333         0.000440      0.061231     -0.088661
O	      2.09096     -0.11292      0.10044         0.004927     -0.065098      0.092724
O	      4.18820      2.07896     -0.00878         0.009394      0.006259     -0.041449
O	      6.27481     -2.09269     -2.01442         0.065777      0.024602      0.008080
O	      8.36194     -0.00378     -2.04917        -0.022151      0.012991     -0.011067
O	      4.16796      0.01907     -2.04474         0.023130     -0.009142      0.011682
O	      6.25505      2.10795     -2.07890        -0.060811     -0.019952     -0.017644
