# total energy = -120.41085455 eV
 
CRYSTAL
PRIMVEC
0.000046 4.105839 0.000019 
4.181859 0.000044 4.148453 
4.181905 0.000013 -4.148496 
PRIMCOORD
16 1
Li	      0.09524      4.10508      0.00662         0.010835      0.000095      0.008774
Li	      2.09149      2.05193      0.07713         0.003007     -0.000125      0.003646
Li	      4.08850      4.10522      0.00644        -0.008587     -0.000219      0.010160
Li	      2.09148      4.10529      1.89401         0.002268     -0.001702     -0.021785
Ti	      6.27431      2.05244     -0.01615        -0.004036     -0.001473      0.104667
Ti	      4.14945      2.05188      2.09071        -0.023167      0.001422     -0.025744
Ti	      2.09182      4.10456     -1.98219         0.001002      0.002397      0.158806
Ti	      4.21634      2.05262     -2.05832         0.021568     -0.003233     -0.021665
O	      2.09213      4.10478     -0.11967        -0.001076      0.000626     -0.195445
O	      4.21281      2.05251      0.00658         0.055759     -0.002993     -0.019279
O	      4.18068      4.10465      2.06807         0.036821      0.002556     -0.002477
O	      2.09216      2.05164     -2.01418        -0.002226      0.002234      0.034137
O	      4.18483      4.10548     -2.08169        -0.035265     -0.003016      0.005366
O	      2.09189      2.05200      2.06324        -0.000091      0.002237      0.025103
O	      6.27351      4.10526      0.03507         0.002907     -0.001474     -0.044245
O	      8.33576      2.05181      0.00658        -0.059716      0.002668     -0.020017
