# total energy = -120.33804317 eV
 
CRYSTAL
PRIMVEC
-0.000037 4.157095 0.000083 
4.111798 0.000046 4.111712 
4.180938 -0.000121 -4.180861 
PRIMCOORD
16 1
Li	      0.07510      4.15561     -0.07465        -0.004416      0.000649      0.010384
Li	      2.07705      2.07743     -0.01701        -0.003521     -0.001598      0.000249
Li	      4.07300      4.15507      0.03906         0.007896      0.002727     -0.002181
Li	      4.13027      2.07760      2.04271         0.004241     -0.001458     -0.003860
Ti	      6.21958      2.07736     -0.05262         0.016366      0.000728      0.004538
Ti	      2.11316      4.15576      2.00025        -0.046098     -0.000539      0.041816
Ti	      2.03581      4.15555     -2.03436         0.044866      0.001532     -0.045940
Ti	      4.16498      2.07654     -2.10788         0.000234      0.003080     -0.018853
O	      2.07458      4.15508     -0.01771         0.000760      0.003262      0.002370
O	      4.23748      2.07756     -0.12573         0.140562     -0.003452     -0.136112
O	      4.13050      4.15678      2.03905        -0.002666     -0.007788     -0.004545
O	      2.05069      2.07682     -2.04975        -0.004103      0.003758      0.002387
O	      4.16513      4.15515     -2.10792        -0.003087      0.002340      0.000559
O	      2.09854      2.07688      2.01407        -0.000162      0.004364      0.000895
O	      6.22074      4.15609     -0.05166        -0.003585     -0.002904     -0.000786
O	      4.09147      2.07791     -4.09128        -0.147288     -0.004700      0.149079
