# total energy = -92.02204091 eV
 
CRYSTAL
PRIMVEC
2.087032 4.064771 2.059474 
4.178191 -4.070014 0.006371 
4.172839 0.001129 -4.119678 
PRIMCOORD
16 1
Li	      2.09488      2.03020     -0.00688        -0.004151      0.005689      0.005400
Li	      2.12367     -2.03697     -0.01359         0.009822     -0.008766     -0.016438
Li	      4.15155     -0.00950     -0.00577        -0.013980     -0.021178     -0.000099
Li	      4.15681     -2.02727     -2.03577        -0.000578      0.003124      0.021032
Mn	      6.26919     -0.01409      2.04253        -0.026871      0.004341     -0.034269
Mn	      2.08931      0.00465     -2.03103         0.023017      0.002157      0.020811
Ni	      8.34731     -2.03523     -2.04824         0.006340      0.000087     -0.009973
Ni	      6.26205      0.00573     -2.05821        -0.010818      0.002966     -0.011034
O	      6.41770      0.02885      0.02079         0.019276     -0.004206      0.135885
O	      6.33873     -2.08663     -2.04382        -0.117963     -0.129165     -0.000609
O	      4.18534      2.17764     -0.04508        -0.004998      0.056587      0.118092
O	      4.10868     -0.01406     -2.09917        -0.086535     -0.122598     -0.045893
O	      8.35233      0.01537     -1.94183         0.134409      0.118254      0.017018
O	      4.18103     -2.18667      0.06302         0.001102     -0.032007     -0.129460
O	      6.17827      2.09129     -2.07670         0.133113      0.119093      0.006617
O	      2.02646     -0.03005     -0.07450        -0.061186      0.005622     -0.077080
