# total energy = -120.28883243 eV
 
CRYSTAL
PRIMVEC
4.183780 -0.000966 4.185686 
0.001085 4.190418 -4.187738 
-0.001853 4.189253 4.186572 
PRIMCOORD
16 1
Li	      0.00045      8.37389     -0.00187        -0.005386      0.013700      0.003675
Li	      2.09629      6.28791      4.18425        -0.012287     -0.006577     -0.000320
Li	      2.08729      4.19019      6.27396         0.001566     -0.001137      0.010991
Li	      0.00261      6.28086     -2.09032        -0.004037      0.008485     -0.014962
Ti	      4.18218      6.28002      6.28054         0.015672      0.019900     -0.016304
Ti	      2.08976      4.19050      2.09277         0.015641     -0.008653     -0.004696
Ti	      2.09206      6.28252      0.00108         0.003738      0.010723     -0.007059
Ti	      0.00136      4.18981      0.00092        -0.005825      0.002266      0.000013
O	      4.15442      2.12568      4.15519        -0.014693     -0.003008      0.004023
O	      4.15339      4.15570      2.12374        -0.004180     -0.004083      0.002258
O	      2.12246      2.12548      2.12442        -0.000945      0.006497      0.014160
O	      2.06364      4.22027      0.02901        -0.002703      0.000823      0.010609
O	      0.02793      4.21889      2.06431         0.002779      0.002026     -0.001287
O	      0.02871      6.25387      0.03008         0.011492     -0.009692      0.009569
O	      2.12176      4.15875      4.15509         0.003839     -0.031186      0.001864
O	      2.06205      6.25248      2.06427        -0.004672     -0.000085     -0.012536
