# total energy = -120.63553608 eV
 
CRYSTAL
PRIMVEC
4.133051 -0.014771 4.186312 
-0.015087 4.132592 -4.186001 
-0.015298 4.133438 4.186822 
PRIMCOORD
16 1
Li	      0.00589      0.00376      0.00267        -0.008624     -0.001101     -0.010011
Li	      2.05619      2.06475      0.00037         0.005788     -0.005005      0.000632
Li	      2.05457      4.12291      6.27976        -0.006431      0.016045      0.007434
Li	      2.05100      4.12793      2.09109        -0.000376     -0.010601      0.006716
Ti	     -0.02196      6.19919      2.09045        -0.004174     -0.003003      0.009905
Ti	     -0.02076      6.19819     -2.08902         0.004948      0.007240     -0.005295
Ti	      2.04225      6.19230      0.00135         0.008005     -0.011834     -0.015701
Ti	      4.11613      4.12089      4.18435         0.014451     -0.004422      0.016367
O	      0.02572      2.03389     -0.00031        -0.005962      0.008082      0.005267
O	     -0.01398      4.13272     -2.08613        -0.002500      0.001305      0.034661
O	      2.05999      2.06054      2.10163        -0.003552     -0.007231      0.033054
O	      1.96443      4.21184      0.00137        -0.056292      0.062129     -0.007874
O	      4.11726      4.11845      6.27110         0.006870      0.002066     -0.035330
O	      4.07409      6.22204      4.18684         0.000723     -0.002501      0.001785
O	      2.13652      4.04076      4.18718         0.052609     -0.053483     -0.004929
O	      2.04487      6.19193      2.08632        -0.005481      0.002314     -0.036682
