# total energy = -58.43602005 eV
 
CRYSTAL
PRIMVEC
3.877140 0.000000 0.000000 
0.001286 3.877140 0.000000 
1.938324 1.923337 4.027717 
PRIMCOORD
8 1
Li	      1.84183      3.68298      0.00352         0.478939      0.797927     -0.369049
Li	      3.68200      3.67796      1.91879         0.759804      0.710603      0.301262
Ti	      1.84150      1.83875      1.92258        -1.752231     -1.761192      1.779379
Ti	      0.00111      1.84107      0.00050        -2.461085      1.162047     -1.529867
O	      1.84242      1.84294      0.01075         1.909198     -0.183777     -2.663030
O	      3.68325      1.83676      1.91232         2.377838     -0.534619      2.391332
O	      0.00000      0.00000      0.00000        -0.906838     -2.452709     -0.118815
O	      1.84264      3.67945      1.92315        -0.405626      2.261720      0.208788
