# total energy = -58.86227430 eV
 
CRYSTAL
PRIMVEC
3.897546 0.000000 0.000000 
0.001292 3.897546 0.000000 
1.948525 1.933460 4.048916 
PRIMCOORD
8 1
Li	      1.86127      3.72184      0.00356         0.409531      0.688380     -0.306360
Li	      3.72086      3.71678      1.93904         0.652340      0.606919      0.255619
Ti	      1.86093      1.85816      1.94287        -1.445865     -1.458541      1.448016
Ti	      0.00112      1.86050      0.00050        -2.077721      0.936527     -1.256613
O	      1.86186      1.86240      0.01087         1.579958     -0.141013     -2.274306
O	      3.72213      1.85615      1.93251         2.015718     -0.457179      2.066327
O	      0.00000      0.00000      0.00000        -0.793679     -2.077462     -0.097294
O	      1.86209      3.71829      1.94345        -0.340283      1.902369      0.164611
