# total energy = -59.22633464 eV
 
CRYSTAL
PRIMVEC
3.917952 0.000000 0.000000 
0.001299 3.917952 0.000000 
1.958727 1.943583 4.070114 
PRIMCOORD
8 1
Li	      1.88081      3.76092      0.00359         0.343749      0.586378     -0.248962
Li	      3.75992      3.75580      1.95940         0.555729      0.512761      0.214205
Ti	      1.88047      1.87767      1.96327        -1.173166     -1.192201      1.157608
Ti	      0.00113      1.88003      0.00051        -1.729917      0.740998     -1.014652
O	      1.88141      1.88195      0.01098         1.284849     -0.106452     -1.917912
O	      3.76120      1.87564      1.95280         1.686839     -0.384200      1.760036
O	      0.00000      0.00000      0.00000        -0.686561     -1.737037     -0.078520
O	      1.88164      3.75733      1.96385        -0.281521      1.579754      0.128197
