# total energy = -59.78602963 eV
 
CRYSTAL
PRIMVEC
3.958764 0.000000 0.000000 
0.001313 3.958764 0.000000 
1.979130 1.963829 4.112511 
PRIMCOORD
8 1
Li	      1.92020      3.83968      0.00367         0.227317      0.403874     -0.153243
Li	      3.83866      3.83445      2.00043         0.383379      0.346205      0.136106
Ti	      1.91985      1.91699      2.00438        -0.720638     -0.753816      0.688553
Ti	      0.00116      1.91940      0.00052        -1.131462      0.433989     -0.615069
O	      1.92081      1.92136      0.01121         0.797538     -0.053496     -1.292662
O	      3.83997      1.91492      1.99369         1.115409     -0.257468      1.212037
O	      0.00000      0.00000      0.00000        -0.486590     -1.149735     -0.048158
O	      1.92105      3.83601      2.00498        -0.184953      1.030447      0.072436
