# total energy = -59.99008146 eV
 
CRYSTAL
PRIMVEC
3.979170 0.000000 0.000000 
0.001319 3.979170 0.000000 
1.989332 1.973952 4.133710 
PRIMCOORD
8 1
Li	      1.94005      3.87936      0.00371         0.176728      0.323709     -0.115768
Li	      3.87834      3.87408      2.02111         0.306365      0.274421      0.108757
Ti	      1.93969      1.93680      2.02510        -0.539149     -0.576169      0.499737
Ti	      0.00117      1.93924      0.00052        -0.878639      0.315272     -0.455089
O	      1.94066      1.94122      0.01133         0.602393     -0.033227     -1.018555
O	      3.87966      1.93471      2.01429         0.869287     -0.202695      0.964537
O	      0.00000      0.00000      0.00000        -0.394927     -0.899417     -0.037800
O	      1.94090      3.87566      2.02570        -0.142057      0.798105      0.054181
