# total energy = -60.14940462 eV
 
CRYSTAL
PRIMVEC
3.999576 0.000000 0.000000 
0.001326 3.999576 0.000000 
1.999534 1.984074 4.154908 
PRIMCOORD
8 1
Li	      1.95999      3.91926      0.00375         0.131831      0.249323     -0.080135
Li	      3.91822      3.91392      2.04189         0.239654      0.211768      0.078264
Ti	      1.95964      1.95672      2.04592        -0.385287     -0.424140      0.344349
Ti	      0.00118      1.95918      0.00053        -0.654903      0.219340     -0.318274
O	      1.96062      1.96118      0.01144         0.431354     -0.021157     -0.769543
O	      3.91955      1.95460      2.03501         0.651228     -0.153509      0.738796
O	      0.00000      0.00000      0.00000        -0.308266     -0.674051     -0.027881
O	      1.96086      3.91551      2.04653        -0.105611      0.592425      0.034424
