# total energy = -90.83849811 eV
 
CRYSTAL
PRIMVEC
2.089105 3.949898 2.089023 
4.172592 -3.953792 0.013279 
4.159312 -0.000007 -4.159178 
PRIMCOORD
16 1
Li	      2.10858      1.97466     -0.01131        -0.031807      0.001960      0.000017
Li	      4.14677      1.97463     -2.05005         0.000544      0.003125     -0.030297
Li	      8.31057      1.97190     -2.04511         0.031646     -0.001841      0.000088
Li	      6.27255      1.97187     -0.00626        -0.001230     -0.001988      0.029904
Mn	      4.17683     -0.00215     -4.14060        -0.017468      0.006071     -0.017480
Mn	      4.15336     -0.00102     -0.00490         0.017143     -0.006819      0.017787
Ni	      8.32811     -0.01751      0.01048        -0.001903     -0.019063     -0.001640
Ni	      6.26375      0.01022     -2.05363         0.001367      0.019284      0.000744
O	      6.21697     -0.00363      0.05694        -0.064116      0.000286      0.063910
O	      6.25121     -1.97872     -2.06615         0.000367     -0.000318      0.000851
O	      4.16177      1.88511      0.00339        -0.010202     -0.089429     -0.009117
O	      4.16489     -0.00168     -2.07200         0.001205     -0.000613     -0.000876
O	      8.37472     -0.00350     -2.10098         0.062806     -0.000700     -0.063433
O	      4.17168     -1.97857      0.01375         0.000470     -0.000488     -0.000131
O	      6.25754      2.06168     -2.05989         0.009706      0.091445      0.009381
O	      2.08554     -0.00159      0.00696         0.001473     -0.000914      0.000291
