# total energy = -60.26753470 eV
 
CRYSTAL
PRIMVEC
4.019982 0.000000 0.000000 
0.001333 4.019982 0.000000 
2.009735 1.994197 4.176107 
PRIMCOORD
8 1
Li	      1.98004      3.95935      0.00378         0.093425      0.178259     -0.050101
Li	      3.95831      3.95396      2.06278         0.177001      0.156112      0.050319
Ti	      1.97969      1.97674      2.06685        -0.255992     -0.294454      0.218132
Ti	      0.00119      1.97922      0.00053        -0.457386      0.142406     -0.205976
O	      1.98067      1.98124      0.01156         0.286701     -0.012262     -0.542662
O	      3.95965      1.97460      2.05583         0.457412     -0.111131      0.527937
O	      0.00000      0.00000      0.00000        -0.226227     -0.473180     -0.020551
O	      1.98092      3.95557      2.06747        -0.074936      0.414250      0.022901
