# total energy = -60.34749899 eV
 
CRYSTAL
PRIMVEC
4.040388 0.000000 0.000000 
0.001340 4.040388 0.000000 
2.019937 2.004320 4.197305 
PRIMCOORD
8 1
Li	      2.00020      3.99965      0.00382         0.059596      0.116624     -0.025040
Li	      3.99859      3.99420      2.08377         0.114828      0.098987      0.024889
Ti	      1.99983      1.99685      2.08789        -0.149173     -0.184605      0.118111
Ti	      0.00120      1.99937      0.00054        -0.283850      0.085010     -0.113621
O	      2.00084      2.00141      0.01168         0.166738     -0.007171     -0.335293
O	      3.99995      1.99470      2.07675         0.286270     -0.069281      0.331386
O	      0.00000      0.00000      0.00000        -0.146879     -0.292243     -0.013630
O	      2.00108      3.99583      2.08851        -0.047530      0.252678      0.013199
