# total energy = -60.39280691 eV
 
CRYSTAL
PRIMVEC
4.060794 0.000000 0.000000 
0.001346 4.060794 0.000000 
2.030139 2.014443 4.218504 
PRIMCOORD
8 1
Li	      2.02045      4.04015      0.00386         0.031420      0.054914     -0.001546
Li	      4.03909      4.03465      2.10488         0.061186      0.053317      0.003700
Ti	      2.02009      2.01708      2.10903        -0.064871     -0.095048      0.040342
Ti	      0.00122      2.01962      0.00054        -0.133848      0.043026     -0.039203
O	      2.02110      2.02167      0.01179         0.072531     -0.006003     -0.151594
O	      4.04046      2.01490      2.09778         0.131593     -0.031784      0.148150
O	      0.00000      0.00000      0.00000        -0.071687     -0.132057     -0.010000
O	      2.02134      4.03629      2.10966        -0.026325      0.113635      0.010151
