# total energy = -60.39175497 eV
 
CRYSTAL
PRIMVEC
4.101606 0.000000 0.000000 
0.001360 4.101606 0.000000 
2.050542 2.034689 4.260901 
PRIMCOORD
8 1
Li	      2.05991      0.02016      0.00394        -0.012957     -0.048362      0.028700
Li	      4.12068      4.11616      2.14740        -0.036576     -0.030967     -0.028041
Ti	      2.06089      2.05783      2.15164         0.041778      0.032864     -0.067392
Ti	      0.00124      2.06042      0.00056         0.103736      0.004070      0.068319
O	      2.06192      2.06252      0.01203        -0.056482     -0.014567      0.168026
O	      4.12208      2.05560      2.14016        -0.117667      0.034125     -0.168841
O	      0.00000      0.00000      0.00000         0.068286      0.138099     -0.012645
O	      2.06218      4.11783      2.15228         0.009883     -0.115262      0.011873
