# total energy = -60.35020785 eV
 
CRYSTAL
PRIMVEC
4.122012 0.000000 0.000000 
0.001367 4.122012 0.000000 
2.060744 2.044811 4.282099 
PRIMCOORD
8 1
Li	      2.08046      0.04087      0.00398        -0.032153     -0.094047      0.040202
Li	      4.16178      4.15722      2.16882        -0.080432     -0.065494     -0.039018
Ti	      2.08146      2.07835      2.17310         0.066539      0.073491     -0.102817
Ti	      0.00125      2.08097      0.00056         0.194336      0.002888      0.107132
O	      2.08249      2.08309      0.01215        -0.094491     -0.024771      0.297433
O	      4.16320      2.07611      2.16151        -0.212591      0.062319     -0.305208
O	      0.00000      0.00000      0.00000         0.132499      0.250211     -0.016340
O	      2.08274      4.15890      2.17375         0.026291     -0.204597      0.018616
