# total energy = -60.28505786 eV
 
CRYSTAL
PRIMVEC
4.142418 0.000000 0.000000 
0.001373 4.142418 0.000000 
2.070946 2.054934 4.303298 
PRIMCOORD
8 1
Li	      2.10112      0.06179      0.00402        -0.046797     -0.135422      0.046975
Li	      4.20309      4.19848      2.19034        -0.116481     -0.093018     -0.047263
Ti	      2.10211      2.09898      2.19467         0.074461      0.100370     -0.128966
Ti	      0.00126      2.10162      0.00057         0.269242      0.013174      0.137042
O	      2.10316      2.10376      0.01227        -0.113258     -0.037408      0.418975
O	      4.20452      2.09671      2.18296        -0.298151      0.087698     -0.431435
O	      0.00000      0.00000      0.00000         0.193443      0.349905     -0.023973
O	      2.10342      4.20018      2.19532         0.037543     -0.285298      0.028645
