# total energy = -60.19856047 eV
 
CRYSTAL
PRIMVEC
4.162824 0.000000 0.000000 
0.001380 4.162824 0.000000 
2.081147 2.065057 4.324496 
PRIMCOORD
8 1
Li	      2.12188      0.08290      0.00406        -0.055076     -0.173471      0.052165
Li	      4.24460      4.23994      2.21198        -0.149829     -0.119781     -0.054712
Ti	      2.12288      2.11971      2.21634         0.067711      0.114119     -0.144533
Ti	      0.00128      2.12238      0.00058         0.329353      0.031587      0.159578
O	      2.12393      2.12454      0.01239        -0.118719     -0.049780      0.525736
O	      4.24604      2.11742      2.20452        -0.371874      0.111705     -0.543494
O	      0.00000      0.00000      0.00000         0.251462      0.436842     -0.032754
O	      2.12419      4.24167      2.21700         0.046973     -0.351221      0.038015
