# total energy = -60.09273520 eV
 
CRYSTAL
PRIMVEC
4.183230 0.000000 0.000000 
0.001387 4.183230 0.000000 
2.091349 2.075180 4.345695 
PRIMCOORD
8 1
Li	      2.14274      0.10422      0.00410        -0.060197     -0.205494      0.055417
Li	      4.28632      4.28162      2.23372        -0.185990     -0.147957     -0.061900
Ti	      2.14374      2.14054      2.23813         0.047751      0.118208     -0.150989
Ti	      0.00129      2.14324      0.00058         0.376468      0.060405      0.174746
O	      2.14481      2.14542      0.01252        -0.111941     -0.066204      0.620448
O	      4.28777      2.13823      2.22619        -0.430311      0.135684     -0.646435
O	      0.00000      0.00000      0.00000         0.307208      0.514418     -0.042200
O	      2.14507      4.28335      2.23879         0.057012     -0.409059      0.050914
