# total energy = -59.96915859 eV
 
CRYSTAL
PRIMVEC
4.203636 0.000000 0.000000 
0.001394 4.203636 0.000000 
2.101551 2.085303 4.366894 
PRIMCOORD
8 1
Li	      2.16370      0.12575      0.00414        -0.065031     -0.238509      0.054857
Li	      4.32824      4.32349      2.25556        -0.211874     -0.162480     -0.064720
Ti	      2.16470      2.16148      2.26002         0.016590      0.112508     -0.148749
Ti	      0.00130      2.16420      0.00059         0.412236      0.097968      0.180597
O	      2.16578      2.16641      0.01264        -0.092396     -0.084472      0.702688
O	      4.32971      2.15914      2.24796        -0.482400      0.153169     -0.740456
O	      0.00000      0.00000      0.00000         0.361065      0.582229     -0.052834
O	      2.16605      4.32524      2.26069         0.061811     -0.460414      0.068617
