# total energy = -59.83000048 eV
 
CRYSTAL
PRIMVEC
4.224042 0.000000 0.000000 
0.001401 4.224042 0.000000 
2.111753 2.095426 4.388092 
PRIMCOORD
8 1
Li	      2.18476      0.14748      0.00418        -0.066030     -0.267330      0.053062
Li	      4.37036      4.36557      2.27751        -0.242281     -0.182344     -0.066573
Ti	      2.18577      2.18252      2.28201        -0.024616      0.097063     -0.136996
Ti	      0.00131      2.18526      0.00059         0.437374      0.141434      0.177871
O	      2.18686      2.18749      0.01276        -0.063770     -0.103697      0.770278
O	      4.37185      2.18015      2.26984        -0.520711      0.171753     -0.821455
O	      0.00000      0.00000      0.00000         0.413300      0.641004     -0.064099
O	      2.18713      4.36734      2.28269         0.066735     -0.497882      0.087914
