# total energy = -92.89641249 eV
 
CRYSTAL
PRIMVEC
2.010777 4.085874 2.072446 
4.115165 -4.134073 0.002526 
4.103738 -0.008922 -4.209688 
PRIMCOORD
16 1
Li	      8.20339     -0.04597     -0.06624        -0.009426      0.008641      0.009707
Li	      4.07126      1.95393      2.02114        -0.005223      0.002182     -0.027192
Li	      4.04210      0.00252      0.05567        -0.016764     -0.016992      0.016567
Li	      6.16307     -0.06172     -2.13735         0.003330      0.006742     -0.007524
Mn	     10.21299     -0.05641     -2.12184         0.000903      0.005370      0.017638
Mn	      2.07983      2.04014     -0.03449         0.033829      0.000842      0.020605
Ni	      8.14999     -2.09056     -2.10309        -0.020047     -0.049151     -0.060415
Ni	      6.09113      2.01290     -0.04689        -0.009812     -0.038844     -0.008062
O	      6.11944     -0.11345      0.10974         0.010273     -0.090819      0.028503
O	      6.11998     -2.05604     -1.91648        -0.012439     -0.007459      0.044326
O	      3.98841      2.00656     -0.05381        -0.114552      0.009735      0.127666
O	      4.10490     -0.03678     -2.29175         0.001232      0.026689     -0.065869
O	      8.32346     -0.05983     -2.13665         0.053280      0.134552      0.013518
O	      4.18619     -2.18611     -0.02450         0.016189     -0.008832      0.013899
O	      6.14229      2.13888     -2.18959         0.096582      0.014643     -0.109216
O	      1.96033      0.13318      0.02201        -0.027354      0.002699     -0.014151
