# total energy = -59.67698412 eV
 
CRYSTAL
PRIMVEC
4.244448 0.000000 0.000000 
0.001407 4.244448 0.000000 
2.121954 2.105548 4.409291 
PRIMCOORD
8 1
Li	      2.20593      0.16941      0.00422        -0.065065     -0.292191      0.048547
Li	      4.41269      4.40785      2.29957        -0.265885     -0.193576     -0.064928
Ti	      2.20694      2.20365      2.30411        -0.075880      0.074305     -0.115836
Ti	      0.00133      2.20643      0.00060         0.451791      0.190885      0.165651
O	      2.20804      2.20867      0.01288        -0.030877     -0.128069      0.830693
O	      4.41419      2.20127      2.29182        -0.548310      0.185035     -0.894748
O	      0.00000      0.00000      0.00000         0.462831      0.692096     -0.074580
O	      2.20831      4.40963      2.30480         0.071395     -0.528486      0.105199
