# total energy = -59.51179793 eV
 
CRYSTAL
PRIMVEC
4.264854 0.000000 0.000000 
0.001414 4.264854 0.000000 
2.132156 2.115671 4.430489 
PRIMCOORD
8 1
Li	      2.22720      0.19155      0.00426        -0.062382     -0.318190      0.044245
Li	      4.45522      4.45033      2.32174        -0.286303     -0.202588     -0.065148
Ti	      2.22821      2.22489      2.32632        -0.135761      0.044732     -0.084039
Ti	      0.00134      2.22769      0.00060         0.456379      0.247481      0.144362
O	      2.22932      2.22996      0.01301         0.009961     -0.154250      0.879086
O	      4.45673      2.22249      2.31391        -0.569471      0.199701     -0.960780
O	      0.00000      0.00000      0.00000         0.511302      0.736253     -0.084670
O	      2.22960      4.45214      2.32701         0.076275     -0.553139      0.126943
