# total energy = -59.33592481 eV
 
CRYSTAL
PRIMVEC
4.285260 0.000000 0.000000 
0.001421 4.285260 0.000000 
2.142358 2.125794 4.451688 
PRIMCOORD
8 1
Li	      2.24857      0.21389      0.00430        -0.054983     -0.338606      0.036965
Li	      4.49796      4.49302      2.34401        -0.306125     -0.210519     -0.064047
Ti	      2.24959      2.24623      2.34863        -0.203984      0.009748     -0.047643
Ti	      0.00135      2.24906      0.00061         0.452873      0.308700      0.116177
O	      2.25071      2.25135      0.01313         0.060427     -0.176867      0.924083
O	      4.49949      2.24381      2.33611        -0.582697      0.209587     -1.015593
O	      0.00000      0.00000      0.00000         0.557226      0.773572     -0.095834
O	      2.25099      4.49484      2.34934         0.077264     -0.575614      0.145891
