# total energy = -677.73898055 eV
 
CRYSTAL
PRIMVEC
12.113357 -0.002170 0.004132 
0.001226 7.888405 0.014793 
4.038324 3.926095 8.977554 
PRIMCOORD
82 1
Li	      4.10157      1.96566      4.32671        -0.011464     -0.000232     -0.040238
Li	     10.06498      3.95165      0.06652        -0.016817     -0.006370     -0.019891
Li	     12.11169      5.90772      4.37436         0.026120      0.001204     -0.041870
Li	     10.06538      7.88051      0.07370        -0.016404      0.000275     -0.020241
Li	     12.13926      1.96332      4.35060         0.022972      0.001273     -0.033270
Li	     10.03185      5.90214      6.91121         0.009649      0.001328      0.040230
Li	     12.14408      3.94714      2.21662         0.015592     -0.000396      0.023246
Li	     14.10744      5.90224      6.89982        -0.023815     -0.001874      0.033224
Li	     12.14480      7.87611      2.22396         0.012629      0.006616      0.023125
Li	     14.13636      9.84642      6.89011        -0.022618      0.001051      0.040440
Ti	      2.13068      1.97020      2.18991         0.213255     -0.000937     -0.047542
Ti	      4.26392      3.94688      6.85935         0.190091      0.062833     -0.211627
Ti	      2.16488      5.91415      2.20864         0.263260      0.002092     -0.072999
Ti	      4.26329      7.86103      6.86593         0.197457     -0.063749     -0.208934
Ti	      6.03134      1.97057      2.12871        -0.027290      0.000201      0.014310
Ti	      8.05226      3.89596      6.81997        -0.023830     -0.065823      0.116493
Ti	      6.01340      5.91447      2.15801        -0.074846      0.000388     -0.039182
Ti	      8.05143      7.90814      6.82823        -0.015621      0.058836      0.110051
Ti	      9.95151      1.96793      2.24507        -0.160206     -0.002079     -0.083912
Ti	     11.97081      3.89699      6.67135        -0.119898     -0.029852      0.000593
Ti	      9.94667      5.91212      2.25091        -0.144063     -0.001164     -0.138963
Ti	     11.97065      7.90826      6.67939        -0.123089      0.027957     -0.003469
Ti	      0.14242      1.97387      0.02074         0.156301     -0.000277      0.077576
Ti	      2.16292      3.97088      4.56980         0.126777      0.032817      0.001536
Ti	      0.14805      5.91799      0.02999         0.148509      0.000857      0.132587
Ti	      2.16381      7.84796      4.57694         0.124374     -0.030736     -0.001144
Ti	      4.06362      1.97224      0.13496         0.023695     -0.002000     -0.004344
Ti	      6.08139      3.97136      4.42210         0.021327      0.060703     -0.118641
Ti	      4.08233      5.91688      0.12204         0.065620     -0.004722      0.038932
Ti	      6.08250      7.84787      4.42885         0.020329     -0.051214     -0.112812
Ti	      7.96426      1.97158      0.07362        -0.212704     -0.001756      0.053831
Ti	      9.86963      3.92057      4.38212        -0.196034     -0.067074      0.214198
Ti	      7.93072      5.91583      0.06890        -0.263562      0.000789      0.084852
Ti	      9.87059      7.89503      4.38986        -0.199391      0.072009      0.218729
O	      2.02428      1.97293      0.23469        -0.160743     -0.002503      0.061373
O	      4.07640      3.88151      4.81632        -0.085086     -0.008231      0.077711
O	      2.02630      5.91722      0.25461        -0.172880     -0.004367      0.049229
O	      4.07714      7.93587      4.82376        -0.089156      0.007758      0.072297
O	      6.05329      1.97222      0.08741         0.089020     -0.000188      0.055049
O	      8.04471      3.92807      4.76444         0.229848     -0.001097     -0.063761
O	      6.04530      5.91545      0.14389         0.137784      0.001844      0.080249
O	      8.04548      7.88701      4.77227         0.227518      0.006030     -0.068203
O	     10.07811      1.97168      0.19084         0.062342      0.000199      0.019189
O	     12.12845      3.92899      4.71954        -0.040064      0.000867      0.073804
O	     10.08593      5.91590      0.21035         0.073256      0.000464      0.045274
O	     12.12877      7.88482      4.72752        -0.039583     -0.003707      0.071060
O	      4.04150      1.96942      2.17662        -0.090736      0.001006     -0.057625
O	      6.08860      3.93946      6.47833        -0.233358     -0.000201      0.061860
O	      4.05026      5.91432      2.13615        -0.122539      0.000406     -0.083443
O	      6.08875      7.86897      6.48549        -0.234300     -0.000021      0.065864
O	      8.07004      1.96842      2.02925         0.165797      0.003901     -0.070424
O	     10.05833      3.98553      6.42326         0.076408      0.011737     -0.056654
O	      8.06947      5.91245      2.02304         0.171211      0.006841     -0.051614
O	     10.05853      7.82138      6.43071         0.076973     -0.015785     -0.057342
O	     12.12994      1.96763      2.07770        -0.064088      0.001469     -0.021670
O	     14.11727      3.93671      6.52412         0.047699     -0.002123     -0.071720
O	     12.12252      5.91182      2.07368        -0.070383      0.001578     -0.050031
O	     14.11845      7.86912      6.53122         0.048108      0.005048     -0.067078
O	     16.07749      3.92490      8.87184         0.090581     -0.039926      0.004652
O	      2.05864      1.96535      4.31708        -0.010906     -0.006219      0.027330
O	     16.07814      7.87139      8.87878         0.090264      0.038915      0.006171
O	      1.99790      5.90949      4.31701         0.011547     -0.002364      0.042514
O	      8.07955      3.92646      8.75699        -0.000564     -0.008635     -0.127231
O	      6.02261      1.96549      4.18802        -0.009212     -0.012473     -0.011084
O	      8.07980      7.87229      8.76463        -0.003527      0.007042     -0.127106
O	      6.06981      5.90951      4.20239        -0.016706     -0.007242     -0.011197
O	     12.16017      3.92471      8.67186         0.015239     -0.002718     -0.013464
O	     10.17470      1.96408      4.23121        -0.116193     -0.005487     -0.009869
O	     12.16108      7.87289      8.67943         0.014962     -0.002449     -0.015781
O	     10.16386      5.90808      4.24128        -0.100065     -0.002088     -0.064738
O	      1.97419      3.94267      2.57008        -0.022621      0.002318     -0.002348
O	      3.95826      5.90359      7.01112         0.118469      0.003877      0.010333
O	      1.97460      7.88333      2.57764        -0.021977     -0.006069     -0.004010
O	      3.97027      9.84797      7.01647         0.100966      0.002944      0.060403
O	      6.05400      3.94133      2.48574        -0.005311      0.013163      0.122466
O	      8.11027      5.90256      7.05343         0.016195      0.008825      0.014554
O	      6.05483      7.88437      2.49303        -0.003774     -0.015254      0.122628
O	      8.06518      9.84673      7.05467         0.020939      0.011096      0.007996
O	     10.16641      3.94093      2.37378        -0.080509      0.038162     -0.006876
O	     12.07455      5.90249      6.92283         0.013090      0.005220     -0.018908
O	     10.16696      7.88233      2.38153        -0.080127     -0.037162     -0.009186
O	     12.13693      9.84656      6.93843        -0.010111      0.004627     -0.035517
