# total energy = -677.76130342 eV
 
CRYSTAL
PRIMVEC
12.121156 -0.001756 -0.003421 
0.001492 7.883075 0.015204 
4.035645 3.923957 8.962112 
PRIMCOORD
82 1
Li	      4.10560      1.96383      4.31301        -0.006171      0.001392     -0.017974
Li	     10.06668      3.93370      0.04942        -0.000415     -0.001973     -0.028524
Li	     12.11836      5.90418      4.34242         0.027177     -0.001362     -0.039058
Li	     10.06741      7.89155      0.05771        -0.001527     -0.003916     -0.029843
Li	     12.14267      1.96269      4.33280         0.014057     -0.000981     -0.021142
Li	     10.03238      9.84074      6.90350         0.000219     -0.000447      0.025165
Li	     12.15348      3.94548      2.22341         0.006387      0.001694      0.022187
Li	     14.13919      5.89895      6.89180        -0.025477     -0.000579      0.033141
Li	     12.15469      7.87083      2.23106         0.004942      0.001044      0.024417
Li	     14.11563      9.84039      6.89860        -0.012945     -0.001927      0.017148
Ti	      2.13194      1.96880      2.18664         0.203947      0.004739     -0.066595
Ti	      4.26730      3.94485      6.84751         0.180803      0.030869     -0.165539
Ti	      2.17595      5.90998      2.21285         0.280797     -0.001192     -0.040204
Ti	      4.26822      7.85626      6.85492         0.183398     -0.032525     -0.164211
Ti	      6.03446      1.96880      2.15394        -0.043324      0.001879      0.015555
Ti	      8.05075      3.97817      6.80720         0.008824      0.064784      0.132200
Ti	      6.02416      5.90970      2.10525        -0.055850      0.001479      0.021075
Ti	      8.05157      7.82310      6.81366         0.006239     -0.070741      0.133489
Ti	      9.94861      1.96723      2.23233        -0.123775      0.002587     -0.098402
Ti	     11.97122      3.95895      6.64738        -0.095746      0.015853      0.010673
Ti	      9.95414      5.90879      2.22387        -0.170706     -0.002677     -0.092170
Ti	     11.97260      7.84040      6.65395        -0.096634     -0.018194      0.012632
Ti	      0.14605      1.97254      0.03778         0.172237      0.000315      0.096553
Ti	      2.16568      3.96462      4.57068         0.086959      0.016999     -0.014572
Ti	      0.15336      5.91406      0.02936         0.117880     -0.002023      0.108758
Ti	      2.16776      7.84554      4.57745         0.081817     -0.011179     -0.011750
Ti	      4.07669      1.97181      0.15586         0.055891     -0.001026     -0.019808
Ti	      6.08356      3.98117      4.41112        -0.002161      0.071505     -0.137996
Ti	      4.06787      5.91271      0.10536         0.037378     -0.004671     -0.000603
Ti	      6.08485      7.82610      4.41790        -0.006785     -0.060145     -0.139870
Ti	      7.92397      1.97118      0.04856        -0.274913     -0.000693      0.041761
Ti	      9.86638      3.94841      4.37054        -0.177328      0.039459      0.158169
Ti	      7.96829      5.91214      0.07471        -0.202751     -0.002113      0.073714
Ti	      9.86774      7.86034      4.37785        -0.177995     -0.034652      0.159581
O	      2.02866      1.97202      0.23174        -0.170082     -0.004954      0.026870
O	      4.07628      3.87439      4.81240        -0.058879     -0.018226      0.050839
O	      2.02892      5.91370      0.25887        -0.166474     -0.002581      0.042006
O	      4.07761      7.93479      4.81997        -0.063530      0.011874      0.049549
O	      6.04742      1.97083      0.13961         0.164624      0.002547      0.062365
O	      8.04395      3.94483      4.75091         0.222499     -0.012389     -0.074567
O	      6.05073      5.91282      0.07366         0.080725      0.000467      0.020442
O	      8.04480      7.86314      4.75860         0.226204      0.017555     -0.077547
O	     10.09082      1.97088      0.19233         0.044469      0.001274      0.048800
O	     12.13610      3.93404      4.69991        -0.066811      0.008597      0.060183
O	     10.08224      5.91243      0.17960         0.090812      0.002085      0.027937
O	     12.13667      7.87283      4.70675        -0.067189     -0.011931      0.064219
O	      4.05025      1.96841      2.18683        -0.090906     -0.002119     -0.020729
O	      6.09048      3.94120      6.46705        -0.220121     -0.017362      0.070445
O	      4.05267      5.90994      2.11781        -0.157527     -0.000613     -0.031895
O	      6.09126      7.86069      6.47457        -0.217808      0.015825      0.070031
O	      8.07214      1.96719      2.00314         0.168098      0.003331     -0.057501
O	     10.05894      3.86981      6.40504         0.078261     -0.005867     -0.072785
O	      8.07150      5.90920      2.02957         0.177191      0.004180     -0.024162
O	     10.06003      7.93057      6.41255         0.078862      0.009972     -0.069808
O	     12.13750      1.96696      2.07824        -0.070935      0.002146     -0.024792
O	     14.12142      3.92955      6.51341         0.065059      0.015500     -0.062936
O	     12.13043      5.90836      2.06350        -0.038664      0.002597     -0.034847
O	     14.12228      7.86985      6.52052         0.064548     -0.013946     -0.061404
O	     16.08335      3.92289      8.85253         0.091445     -0.017591     -0.003603
O	      2.05343      1.96410      4.31765         0.020758     -0.007148      0.005155
O	     16.08439      7.86712      8.86004         0.089663      0.021462     -0.000808
O	      2.00659      5.90555      4.32149        -0.007406     -0.001703     -0.017412
O	      8.07892      3.93129      8.74188        -0.008635      0.011275     -0.133586
O	      6.03444      1.96420      4.18947        -0.026657     -0.001364     -0.017254
O	      8.07970      7.86082      8.74939        -0.005906     -0.002151     -0.128257
O	      6.05491      5.90531      4.18485         0.003589     -0.001722     -0.000856
O	     12.15397      3.92783      8.64880         0.045329      0.005597     -0.016411
O	     10.16575      1.96338      4.21924        -0.087473     -0.003857     -0.045098
O	     12.15492      7.86380      8.65648         0.043839     -0.007900     -0.017197
O	     10.16994      5.90491      4.21740        -0.090200     -0.003596      0.006399
O	      1.98178      3.94105      2.56766        -0.042567      0.004659      0.013220
O	      3.96684      5.90014      7.00540         0.087752      0.002657      0.005723
O	      1.98288      7.87714      2.57531        -0.043178     -0.010845      0.012723
O	      3.97190      9.84162      7.00516         0.081234      0.004008      0.053105
O	      6.05795      3.94415      2.47486        -0.004830      0.005649      0.129354
O	      8.07988      5.89960      7.03945        -0.003803      0.002237     -0.007128
O	      6.05856      7.87378      2.48273        -0.002388     -0.014767      0.133085
O	      8.10330      9.84076      7.03293         0.013307      0.003612      0.024478
O	     10.17156      3.93644      2.35915        -0.093741     -0.021144      0.011014
O	     12.13189      5.89935      6.90175         0.001087      0.002096      0.011697
O	     10.17281      7.88034      2.36673        -0.096084      0.017435      0.011432
O	     12.08480      9.84080      6.90495        -0.032015      0.003555     -0.008445
