# total energy = -680.95651905 eV
 
CRYSTAL
PRIMVEC
12.137914 -0.002284 0.008027 
0.001204 7.906160 0.011065 
4.049132 3.931128 8.976690 
PRIMCOORD
83 1
Li	      6.05606      3.96668      0.01783        -0.022552     -0.000240     -0.014574
Li	      8.09083      5.90734      4.37611         0.006761     -0.003046     -0.028664
Li	      6.04791      7.89812      0.02040        -0.025968     -0.001367     -0.011397
Li	      8.12374      1.98556      4.36895        -0.004802      0.003229     -0.039766
Li	     12.18213      1.95992      4.28813        -0.003611      0.004967     -0.031302
Li	      6.01400      5.91495      7.02704         0.011288     -0.014369      0.012643
Li	      4.00186      7.90611      2.52889         0.010491     -0.006354      0.012768
Li	      8.13352      3.96123      2.19179        -0.011522     -0.005230     -0.001511
Li	     10.09894      5.90943      6.90876        -0.021696     -0.005253      0.015733
Li	      8.09433      7.89148      2.27210         0.005552      0.007019      0.007529
Li	     10.13038      9.87093      6.86190        -0.036638      0.002641      0.024525
Ti	      1.97347      1.96304      2.11761        -0.074345      0.008156      0.023498
Ti	      4.00584      3.95938      6.81242         0.006337     -0.037746      0.119633
Ti	      1.94321      5.93292      2.27134        -0.108944     -0.030845     -0.040374
Ti	      4.02254      7.88055      6.60154        -0.041627      0.001022      0.052301
Ti	      5.99954      1.99031      2.21337        -0.176595      0.065663      0.139480
Ti	      7.94997      3.92269      6.70112        -0.176430     -0.041800      0.035794
Ti	      5.97632      5.91379      2.21574        -0.171079     -0.070113      0.132797
Ti	      7.97572      7.91242      6.68505        -0.191168      0.025747      0.064494
Ti	     10.22091      1.96111      2.18037         0.170833     -0.033956     -0.022829
Ti	     12.35228      3.95249      6.85684         0.194901      0.071112     -0.124305
Ti	     10.26382      5.92496      2.25473         0.258635      0.042442     -0.068457
Ti	     12.32588      7.86552      6.82077         0.235921     -0.059151     -0.169110
Ti	     12.14588      2.00080      0.12998         0.022600      0.026657     -0.034360
Ti	      2.05809      3.93165      4.44450         0.064653      0.041180     -0.082801
Ti	      4.07409      9.74954      8.92863         0.073530     -0.098309      0.031737
Ti	     14.19733      7.90105      4.58689         0.043071     -0.020448      0.001380
Ti	      3.92706      2.00541      0.06792        -0.199524      0.033838     -0.001665
Ti	      5.86580      3.93898      4.42111        -0.288071     -0.034776     -0.039897
Ti	      7.90966      9.84230      8.96880        -0.256709     -0.047611      0.056442
Ti	      5.96458      7.92741      4.58013        -0.155779      0.037811     -0.039368
Ti	     12.29387      5.90709      8.97689         0.176686     -0.046707      0.089676
Ti	     10.25537      3.96233      4.57709         0.129898      0.054347     -0.063632
Ti	     12.31090      9.85536      8.96651         0.132300      0.069062      0.116009
Ti	     10.24378      7.87546      4.58266         0.131265     -0.033386     -0.066775
O	      2.01410      1.99131      0.08403         0.121501     -0.002033      0.044208
O	      4.02156      3.92896      4.73593         0.135396     -0.000038     -0.028921
O	      1.99378      5.92065      0.24762         0.164368     -0.011224     -0.050961
O	      4.03088      7.90647      4.56277         0.051655      0.002498      0.045932
O	      6.06809      1.97485      0.18922         0.022974      0.003315     -0.016356
O	      8.09925      3.94468      4.72823         0.031522     -0.001397      0.047866
O	      6.06733      5.93610      0.21374         0.059924      0.002042      0.002000
O	      8.12093      7.89706      4.70058         0.012818      0.010536      0.035598
O	     10.12046      1.97737      0.22215        -0.196813      0.011549      0.056628
O	     12.16723      3.87121      4.81292        -0.102288     -0.033438      0.028141
O	     10.14242      5.93187      0.30634        -0.231382     -0.018094     -0.016860
O	     12.14117      7.95843      4.79303        -0.116545      0.022064      0.065357
O	      4.05647      1.90799      2.02332         0.105645     -0.009717     -0.089439
O	      6.03895      4.00957      6.43528         0.117923      0.025998      0.008476
O	      4.02881      6.01383      1.95562         0.145563      0.026398     -0.030766
O	      6.06073      7.81759      6.56727         0.131006      0.002995     -0.064617
O	      8.08881      1.97299      2.07349         0.004367      0.012250     -0.021481
O	     10.10677      3.94421      6.53941         0.018486     -0.005205     -0.055956
O	      8.10040      5.93038      2.05858        -0.032807     -0.033693     -0.052124
O	     10.10038      7.88235      6.55557         0.030055     -0.010595     -0.040668
O	     12.13636      1.97135      2.16637        -0.071905     -0.007848     -0.019356
O	     14.19295      3.93731      6.49078        -0.180251      0.012542      0.056849
O	     12.14314      5.94729      1.99944        -0.068172     -0.016050      0.072553
O	     14.17644      7.87528      6.60433        -0.206269      0.000133     -0.026259
O	      4.05184      3.93914      8.69593        -0.015212      0.030153     -0.146548
O	      1.97761      1.96360      4.21841         0.003875      0.004386      0.021366
O	      4.04694      7.87222      8.72131        -0.009599      0.096141      0.038708
O	      2.00768      5.92272      4.20540         0.007711     -0.022107     -0.038446
O	      8.14403      3.94138      8.69857         0.021428     -0.023330     -0.035468
O	      6.15717      1.95871      4.22865         0.023986     -0.029379     -0.006843
O	      8.16491      7.88689      8.72119         0.002413      0.028220     -0.000620
O	      6.13896      5.94348      4.22199         0.029370      0.019043     -0.032567
O	     12.07834      3.92749      8.86168         0.057935     -0.014316     -0.021423
O	     10.13817      1.96819      4.32801        -0.006210     -0.000262      0.043731
O	     12.07654      7.88649      8.87229         0.056893      0.026223     -0.047200
O	     10.09101      5.91965      4.30063        -0.006524     -0.013507      0.042425
O	      2.02289      3.94752      2.50977        -0.010736      0.024892      0.104288
O	      4.08462      5.91380      6.98317        -0.011862     -0.013982     -0.026280
O	      2.05070      7.91126      2.49387        -0.008428     -0.015331      0.009783
O	      4.05877      9.84845      7.00370        -0.010552      0.012506      0.064969
O	      6.11868      3.95449      2.38296         0.063455      0.009755     -0.046030
O	      8.08188      5.91503      6.92387         0.023217     -0.001259     -0.052846
O	      6.06518      7.90404      2.41080         0.047211     -0.007924     -0.055509
O	      8.13663      9.86679      6.93004         0.011455      0.002411     -0.000598
O	     10.06871      3.94563      2.57466        -0.038940      0.007927      0.034213
O	     12.06027      5.90941      6.98566         0.062825      0.026008      0.033346
O	     10.06259      7.90390      2.57392        -0.020182     -0.000134      0.032595
O	     12.07031      9.86108      6.99841         0.072040     -0.033310      0.079458
