# total energy = -680.92273010 eV
 
CRYSTAL
PRIMVEC
11.838075 -0.003534 0.006419 
0.000394 8.053730 0.014652 
3.947534 4.007912 9.000602 
PRIMCOORD
83 1
Li	      5.90425      4.02253      0.12267         0.000486      0.005376     -0.004940
Li	      7.92109      6.03137      4.59747         0.001296     -0.000776     -0.007716
Li	      5.88478      8.05174      0.23642         0.005385     -0.013858      0.000098
Li	      7.85657     10.05080      4.75092         0.013180      0.001262     -0.001224
Li	     11.89353      6.03102      4.75516        -0.001359      0.002372      0.005485
Li	      3.87877      4.02675      1.92266        -0.001128     -0.001492      0.005625
Li	      5.82834      6.03355      6.41178         0.001012     -0.005370      0.001593
Li	      7.91087      4.01339      2.05874         0.015580      0.004630     -0.003526
Li	      9.86284      6.02603      6.74309        -0.007816     -0.000856     -0.015563
Li	      7.94604      8.05951      2.04701        -0.008968     -0.003764     -0.006244
Li	      9.90401     10.05469      6.66562        -0.010191     -0.003794     -0.070794
Ti	      1.95098      1.96672      2.26481        -0.083385     -0.058271      0.084553
Ti	      3.93214      3.93088      6.81651        -0.061398     -0.070933      0.174960
Ti	      1.97662      6.11163      2.26545        -0.013393      0.065575      0.087580
Ti	      3.94928      8.14012      6.83613        -0.025678      0.044203      0.148057
Ti	      5.85647      1.97163      2.31707        -0.073198     -0.212636      0.047575
Ti	      7.80102      3.97758      6.83433        -0.104315     -0.154932      0.031638
Ti	      5.84118      6.07767      2.35916        -0.092412      0.222192     -0.062540
Ti	      7.78844      8.08074      6.85817        -0.131294      0.174734     -0.078167
Ti	      9.97061      2.00882      2.35796         0.273293     -0.004793      0.084279
Ti	     11.97075      3.97654      6.91288         0.142368     -0.136809     -0.079423
Ti	      9.93908      6.03688      2.25494         0.160346      0.005339      0.100682
Ti	     11.96662      8.07614      6.91387         0.142332      0.151962     -0.108383
Ti	     15.74778      6.02630      8.96626        -0.061228      0.026508     -0.103426
Ti	      1.98598      3.98754      4.46492         0.036763     -0.047208     -0.083520
Ti	     11.83084      6.05396      0.10551         0.015336      0.000910     -0.128527
Ti	      2.00680      8.08495      4.51042         0.077275      0.040737     -0.072784
Ti	      7.79834      5.96958      8.90307        -0.145101     -0.209641      0.138561
Ti	      5.83456      3.97166      4.39743        -0.117445     -0.177431      0.166778
Ti	      7.79480     10.08567      8.88475        -0.177794      0.153915      0.014861
Ti	      5.81728      8.07622      4.37210        -0.162693      0.142166      0.015821
Ti	     11.94834      6.01543      8.92537         0.161343     -0.051092      0.118088
Ti	      9.94800      3.98581      4.49887         0.155416     -0.089329     -0.151194
Ti	     11.90538     10.05042      8.96796         0.155552      0.046699      0.006624
Ti	      9.94422      8.07614      4.51191         0.149465      0.069061     -0.178804
O	      1.96017      2.00633      0.25942         0.137017     -0.011280     -0.017377
O	      3.94514      4.00208      4.76088         0.107947      0.003264     -0.027827
O	      1.98267      6.04005      0.26313         0.106570      0.016772      0.046165
O	      3.94375      8.05740      4.78705         0.069784      0.000220     -0.015832
O	      5.91374      2.00670      0.15740        -0.006513      0.018312     -0.007959
O	      7.89004      4.01109      4.71326        -0.040706      0.021345     -0.007565
O	      5.90816      6.04080      0.18392        -0.005499     -0.027998      0.029127
O	      7.89211      8.04462      4.73355         0.010746     -0.022119      0.020589
O	      9.87527      2.01892      0.32898        -0.120013     -0.007092     -0.085881
O	     11.85691      4.07003      4.82326        -0.081685      0.007242      0.026956
O	      9.85439      6.02410      0.28406        -0.060325      0.013030      0.081656
O	     11.85293      7.98904      4.83948        -0.107080     -0.012329      0.048593
O	      3.94218      2.06068      1.95470         0.080726      0.022259     -0.035846
O	      5.90494      4.06722      6.46609         0.118478      0.004527     -0.042811
O	      3.95310      5.98197      1.98302         0.093291     -0.006659     -0.001653
O	      5.90750      7.99304      6.47546         0.148789      0.007220      0.037451
O	      7.88717      2.01078      2.05534        -0.058014      0.013195     -0.038038
O	      9.86024      4.01937      6.57668        -0.004945     -0.003446      0.024800
O	      7.85750      6.03195      2.09264        -0.026233     -0.018065      0.003756
O	      9.86021      8.03442      6.59704        -0.014068      0.013668      0.029628
O	     11.84312      2.00736      1.99965        -0.057611      0.000274      0.014840
O	     13.83443      3.99835      6.50249        -0.101765     -0.000300      0.000258
O	     11.86346      6.02580      2.10868        -0.061767      0.004551     -0.119807
O	     13.83707      8.05242      6.51886        -0.112226      0.015786     -0.015087
O	      3.93945      3.99641      8.73509         0.001374     -0.019853     -0.148244
O	      1.96563      2.00063      4.20664        -0.000218      0.009270     -0.098147
O	      3.95006      8.04969      8.74348         0.002695      0.001257     -0.147375
O	      1.94031      6.03827      4.23434        -0.015276      0.018538     -0.083968
O	      7.93336      4.01255      8.82943        -0.020672      0.084825     -0.061895
O	      5.96717      2.00825      4.30891        -0.026460      0.111843     -0.071964
O	      7.93054      8.02271      8.84246        -0.013448     -0.068997     -0.124999
O	      5.96686      6.02148      4.34629        -0.027563     -0.101451     -0.110892
O	     11.80175      4.01071      8.92890         0.011874      0.069164     -0.103750
O	      9.83877      2.00333      4.41150        -0.053474      0.005155      0.049903
O	     11.79370      8.02832      8.92209         0.020704     -0.072656     -0.101511
O	      9.88988      6.02755      4.37817        -0.022121      0.010294      0.032752
O	      2.04262      4.01738      2.54125         0.013804     -0.013872      0.117134
O	      4.00833      6.02308      7.06091         0.008843      0.009366      0.118754
O	      1.98818      8.05791      2.55315        -0.003524     -0.025298      0.086743
O	      3.97467     10.05800      7.07431        -0.001026      0.001804      0.041655
O	      5.89390      4.02409      2.36655         0.002546      0.063640      0.107430
O	      7.86108      6.03388      6.87381        -0.019013      0.066646      0.115904
O	      5.95225      8.04724      2.33139        -0.010522     -0.042811      0.028317
O	      7.92371     10.04914      6.84129        -0.031978     -0.065000      0.049164
O	      9.80268      4.04216      2.54309        -0.072828      0.015424      0.002211
O	     11.81051      6.02644      6.94448         0.035195      0.027295      0.157342
O	      9.81074      8.02413      2.54675        -0.062298     -0.024318      0.023165
O	     11.80037     10.05035      6.97430         0.040856     -0.027293      0.098050
