# total energy = -684.70346656 eV
 
CRYSTAL
PRIMVEC
12.080002 -0.001937 0.001115 
0.001334 7.885664 0.014559 
4.026434 3.924523 9.028398 
PRIMCOORD
84 1
Li	      6.04341      7.89667      8.76839         0.002739      0.002081     -0.001621
Li	      6.04582      3.89510      8.76373         0.004199      0.004999     -0.008448
Li	     10.06842      7.87378      8.72691         0.017604      0.002045     -0.010337
Li	     10.06552      3.91847      8.70161         0.014498      0.001947      0.005531
Li	     14.08934      7.87417      8.73035        -0.012806      0.000270     -0.021089
Li	     14.08696      3.91578      8.71759        -0.015793      0.002794     -0.010398
Li	      6.04131      5.89877      6.68300        -0.005963     -0.004479      0.045231
Li	      4.01991      7.88427      2.61316         0.019389     -0.001548      0.033009
Li	      8.06207      3.93760      2.59177         0.011459     -0.003288      0.035158
Li	      8.04167      7.88348      2.58555        -0.016649     -0.001188      0.025416
Li	     12.07016      3.93727      2.60022         0.012907     -0.000963      0.043932
Li	     12.09801      7.87940      2.59585         0.009148      0.002134      0.029718
Ti	      2.06096      2.00063      2.32508         0.022093      0.044600      0.183532
Ti	      3.99279      3.88762      6.62250        -0.009644     -0.044821     -0.012199
Ti	      2.06476      5.87806      2.35139         0.021379     -0.039123      0.172940
Ti	      3.99467      7.91014      6.60882        -0.023443      0.046339     -0.030395
Ti	      5.99637      2.00218      2.30331        -0.054595      0.019103      0.136804
Ti	      8.08102      3.88688      6.59142         0.042668     -0.044678      0.032951
Ti	      5.99891      5.88045      2.38211        -0.053896     -0.017463      0.109336
Ti	      8.08325      7.90810      6.60756         0.040934      0.055858     -0.017076
Ti	     10.05844      1.96473      2.33808        -0.013090      0.008719      0.149616
Ti	     12.08315      3.92771      6.59298        -0.005107     -0.002384      0.002863
Ti	     10.05591      5.91100      2.34863        -0.007725      0.007609      0.162360
Ti	     12.08420      7.86961      6.61401        -0.004760      0.004648     -0.004783
Ti	     16.09005      5.89603      9.01566        -0.037318     -0.017756     -0.100140
Ti	     14.12504      3.92813      4.67605         0.045832     -0.015672     -0.000541
Ti	     16.10436      9.83422      9.03896        -0.031222      0.016707     -0.124310
Ti	     14.08936      7.87804      4.69283         0.021288      0.012661     -0.021433
Ti	      8.06648      5.90361      9.00482         0.018356     -0.002574     -0.079929
Ti	      6.00151      3.89184      4.65416        -0.084929     -0.060668     -0.047156
Ti	      8.06622      9.83118      9.02960         0.024837      0.004590     -0.101087
Ti	      6.04422      7.92671      4.67077        -0.031473      0.061253     -0.039026
Ti	     12.08104      5.89441      8.98550         0.008581     -0.028363     -0.164256
Ti	     10.06768      3.93198      4.69865         0.019048     -0.001934      0.006025
Ti	     12.07071      9.84006      9.00291         0.000666      0.012929     -0.141332
Ti	     10.07121      7.87670      4.70630        -0.007059      0.000970     -0.008292
O	      2.01221      1.97295      0.21976         0.012043      0.016365      0.006967
O	      4.02125      3.91907      4.68776         0.003987     -0.001349      0.191495
O	      2.01765      5.91202      0.27648         0.005001     -0.014653      0.051480
O	      4.02377      7.89517      4.65658        -0.006055     -0.006069      0.121230
O	      6.04345      1.97202      0.24763        -0.012285      0.006859      0.026929
O	      8.05332      3.92062      4.64323         0.026317     -0.005882      0.102389
O	      6.04190      5.91152      0.29234        -0.012671     -0.010143      0.020018
O	      8.06027      7.89251      4.65049         0.009689      0.001799      0.105017
O	     10.06720      1.96878      0.25662         0.010472     -0.003131      0.021540
O	     12.08472      3.93426      4.64699        -0.033584      0.004059      0.134201
O	     10.06327      5.91409      0.27885         0.013851     -0.003682      0.041492
O	     12.08118      7.87598      4.66009        -0.010985     -0.005694      0.112777
O	      4.02446      1.87626      1.98851         0.006949     -0.013321     -0.095695
O	      6.03802      3.96463      6.64254        -0.029535     -0.001683     -0.119874
O	      4.03173      6.00036      2.01493         0.012690      0.001067     -0.082026
O	      6.03953      7.83582      6.65244        -0.003964     -0.000496     -0.080172
O	      8.05590      1.96495      2.01704         0.012759     -0.008146     -0.067006
O	     10.07122      3.93093      6.65990        -0.038835      0.005210     -0.122154
O	      8.05114      5.91441      2.03860         0.002176     -0.007998     -0.049871
O	     10.07182      7.86719      6.66715        -0.032798     -0.009097     -0.098711
O	     12.07935      1.96606      2.01030         0.006150     -0.029318     -0.074224
O	     14.09039      3.92780      6.65081         0.044040      0.003895     -0.099363
O	     12.07732      5.90939      2.03196         0.012395      0.016710     -0.091683
O	     14.09172      7.87002      6.66315         0.016731     -0.009886     -0.088733
O	      4.02196      3.92181      8.81100         0.011169      0.005052      0.020470
O	      2.01097      1.96539      4.25305        -0.005322      0.018882     -0.128813
O	      4.02140      7.87042      8.81328         0.009457      0.000640      0.013421
O	      2.02002      5.90551      4.27630         0.002703     -0.010375     -0.157766
O	      8.05693      3.92127      8.76751         0.009568      0.009302      0.041196
O	      6.03931      1.96631      4.27309         0.001827     -0.002560     -0.033248
O	      8.05813      7.86944      8.78043         0.009057     -0.003664      0.026814
O	      6.03707      5.90569      4.34786         0.000533      0.000315     -0.042524
O	     12.07935      3.92221      8.80632        -0.015291      0.025914      0.005714
O	     10.07563      1.96272      4.26619         0.001982     -0.003911     -0.109541
O	     12.08133      7.86808      8.81430        -0.022945     -0.009514     -0.010186
O	     10.06656      5.90618      4.27832        -0.004311      0.004817     -0.130956
O	      1.96919      3.93726      2.50141         0.040118      0.018369     -0.007927
O	      4.10342      5.90273      7.04096        -0.005132     -0.007299      0.075449
O	      2.00797      7.88244      2.52381         0.032552     -0.016747     -0.020936
O	      4.03924      9.83777      7.06267         0.000482      0.020507      0.072443
O	      6.08624      3.93760      2.52176        -0.015369      0.009031     -0.031699
O	      7.97464      5.89803      7.02250         0.015226      0.001815      0.065429
O	      6.04787      7.88181      2.54530        -0.028706     -0.005132     -0.027815
O	      8.04524      9.84079      7.04772         0.012214      0.003384      0.056940
O	     10.06461      3.93722      2.50727         0.001584      0.001063     -0.006284
O	     12.08313      5.89830      7.04815        -0.000166     -0.000495      0.138677
O	     10.06834      7.88114      2.51925         0.001521     -0.007916     -0.026600
O	     12.07893      9.84176      7.06220        -0.009444     -0.002248      0.121142
