# total energy = -92.85606285 eV
 
CRYSTAL
PRIMVEC
2.079736 4.161730 2.079812 
4.134626 -4.163726 0.028938 
4.105816 0.000072 -4.106059 
PRIMCOORD
16 1
Li	      2.07711      2.05044      0.02622         0.005032      0.014662      0.004172
Li	      4.12706      2.06934      2.07672        -0.005700     -0.002035     -0.006156
Li	      4.09417      0.01947      0.06762        -0.008357      0.022801      0.005755
Li	      6.22901      0.02172     -2.06915         0.001341      0.022370     -0.002656
Mn	      2.09165      4.15812      2.07070         0.019232     -0.017303     -0.025146
Mn	      4.12054      4.15826      0.04141        -0.023461     -0.016804      0.019361
Ni	      8.24287     -2.06156     -2.01887        -0.042113     -0.040845     -0.044299
Ni	      4.13828     -2.07371     -2.01773         0.024052      0.002660      0.022093
O	      6.30871      0.00265      0.15315         0.031662     -0.098931      0.034087
O	      6.18733     -2.24880     -2.02147         0.005737     -0.062777      0.000781
O	      4.16212      2.22084      0.00147        -0.101182      0.057035      0.114134
O	      4.01985      0.00867     -2.13584        -0.032748      0.000933     -0.037120
O	      8.34680     -0.01537     -1.91491         0.035915      0.121912      0.035143
O	      4.13461     -2.24886      0.03154        -0.001046     -0.060696      0.007411
O	      6.15769      2.22057     -1.99394         0.112752      0.059710     -0.103534
O	      1.95378     -0.02299     -0.09614        -0.021116     -0.002694     -0.024026
