# total energy = -684.70544331 eV
 
CRYSTAL
PRIMVEC
12.072227 -0.001671 0.001206 
0.001503 7.881311 0.015506 
4.024037 3.923360 9.024231 
PRIMCOORD
84 1
Li	      6.03775      7.86063      8.73135         0.017164     -0.002651     -0.024362
Li	      6.03460      3.93195      8.70015         0.020305      0.005206     -0.003197
Li	     10.05595      7.85881      8.72218        -0.010226      0.002520     -0.013816
Li	     10.05381      3.93438      8.70960        -0.011030     -0.001528     -0.012482
Li	     14.08886      7.83786      8.77242        -0.004141      0.005720     -0.013981
Li	     14.09132      3.95475      8.76700         0.002744     -0.006258     -0.017295
Li	      4.03271      3.93738      2.59246         0.015016      0.002297      0.031950
Li	      4.01313      7.87438      2.58543        -0.014952     -0.000796      0.028549
Li	      8.04022      3.93469      2.60510         0.001841      0.007356      0.033059
Li	      8.06746      7.87681      2.59721         0.001885     -0.002804      0.026532
Li	     12.06380      7.87300      2.61488         0.027728      0.003581      0.029903
Li	     14.08744      9.84170      6.68274        -0.007639     -0.000386      0.041709
Ti	      1.97024      1.99547      2.37448        -0.056983      0.024153      0.115188
Ti	      4.05065      3.97321      6.58801         0.051284      0.043053     -0.003290
Ti	      1.96907      5.87238      2.31054        -0.054911     -0.009120      0.136033
Ti	      4.05446      7.83475      6.60276         0.038429     -0.048474     -0.010183
Ti	      6.02533      1.96489      2.33869        -0.001086      0.001334      0.181963
Ti	      8.05095      3.92931      6.58879        -0.005650      0.007953      0.014668
Ti	      6.02812      5.90870      2.34305         0.009965     -0.002916      0.170659
Ti	      8.05078      7.87010      6.61104        -0.000087      0.004786     -0.002584
Ti	     10.11110      1.99904      2.34351         0.018783      0.030024      0.197658
Ti	     12.04199      3.97194      6.61984        -0.039993      0.044231     -0.014552
Ti	     10.11024      5.87358      2.33123        -0.001362     -0.040918      0.192892
Ti	     12.04168      7.83328      6.60457        -0.031494     -0.049438      0.005782
Ti	      4.03586      5.90425      9.01792         0.054163     -0.006370     -0.101238
Ti	     14.04430      3.97345      4.65100        -0.054883      0.057926     -0.060763
Ti	      4.03991      9.83013      9.00654         0.013302     -0.012451     -0.076449
Ti	     14.08802      7.82162      4.66835        -0.016486     -0.053859     -0.042479
Ti	      8.03833      5.89448      8.99321        -0.015270     -0.022385     -0.165478
Ti	      6.03697      3.93342      4.69703         0.005621      0.009248     -0.015259
Ti	      8.04974      9.83881      8.98937         0.005543      0.003850     -0.175418
Ti	      6.04072      7.87230      4.70389        -0.005760     -0.005617     -0.011773
Ti	     12.07029      5.89824      9.02695        -0.038598     -0.004776     -0.114798
Ti	     10.09415      3.93691      4.67440         0.027089      0.008628     -0.008747
Ti	     12.05671      9.83526      9.01874        -0.034995     -0.011797     -0.082809
Ti	     10.05650      7.86945      4.69055         0.005787     -0.007587     -0.014369
O	      2.01404      1.97334      0.28578        -0.029138      0.013686      0.012439
O	      4.02434      3.94699      4.63806         0.021395      0.002981      0.127116
O	      2.01660      5.91164      0.25501        -0.009823     -0.001875      0.021555
O	      4.03161      7.85647      4.64586         0.005331      0.004729      0.117552
O	      6.03170      1.97033      0.27119         0.020521      0.006866      0.041120
O	      8.05215      3.93063      4.64406        -0.010921     -0.003643      0.133046
O	      6.03718      5.91382      0.26337         0.010761      0.003002      0.023205
O	      8.04898      7.87253      4.65666        -0.001522      0.005657      0.121132
O	     10.06421      1.97283      0.27205         0.009820      0.016218      0.017560
O	     12.06786      3.94651      4.68447        -0.012087      0.003972      0.184072
O	     10.06040      5.91026      0.22909         0.013033     -0.007684      0.002558
O	     12.06891      7.85336      4.65386        -0.005633      0.011408      0.111928
O	      4.01965      1.96355      2.03140         0.034834     -0.004044     -0.052384
O	      6.03937      3.92741      6.65677        -0.024716     -0.013039     -0.114373
O	      4.02722      5.90929      2.02500         0.020369      0.010613     -0.067937
O	      6.04034      7.87488      6.66570        -0.023758      0.006928     -0.117066
O	      8.04670      1.96602      2.02463        -0.013839     -0.014411     -0.100692
O	     10.05844      3.93040      6.64697         0.035462     -0.012007     -0.090280
O	      8.04892      5.90829      2.01696         0.002566      0.020456     -0.072388
O	     10.05891      7.87012      6.66089         0.014345      0.005796     -0.099547
O	     12.07723      1.87606      2.00949         0.006184     -0.004064     -0.097918
O	     14.08176      3.89422      6.63773        -0.007092      0.006165     -0.073622
O	     12.07160      5.99926      1.99716        -0.001745      0.005632     -0.087501
O	     14.08373      7.90549      6.64853         0.006043      0.001298     -0.053709
O	      4.02970      3.92972      8.76248        -0.014387      0.004636      0.045786
O	      2.00749      1.96289      4.34207         0.006399      0.004040     -0.047449
O	      4.03041      7.86602      8.77522        -0.006171     -0.002619      0.042619
O	      2.01154      5.90192      4.28138         0.003721     -0.017729     -0.042343
O	      8.04704      3.92656      8.79849        -0.007278     -0.000992      0.043590
O	      6.03550      1.96185      4.26760        -0.004574      0.001194     -0.118762
O	      8.04804      7.86569      8.80886        -0.005959      0.000724      0.012613
O	      6.04775      5.90403      4.27203        -0.005509     -0.002513     -0.118578
O	     12.06767      3.92900      8.80685         0.016821     -0.004386      0.026716
O	     10.06677      1.96359      4.26715         0.002816      0.011597     -0.130113
O	     12.06775      7.86342      8.80961         0.009570      0.011293      0.019434
O	     10.05877      5.90077      4.26097        -0.004769     -0.012056     -0.143861
O	      2.05776      3.93614      2.51796        -0.013747      0.005977     -0.026303
O	      4.01745      5.90204      7.03600        -0.003341     -0.013253      0.061767
O	      2.02124      7.87596      2.54322        -0.033651      0.001102     -0.032204
O	      3.94755      9.84237      7.02529         0.006175     -0.004481      0.057437
O	      6.03528      3.93698      2.50709        -0.002954     -0.002774     -0.022753
O	      8.04390      5.89905      7.05196         0.001233     -0.003056      0.114223
O	      6.03865      7.87646      2.51923        -0.005305      0.002225     -0.044671
O	      8.05085      9.84046      7.05262         0.004990     -0.005223      0.123128
O	     10.01624      3.93521      2.50046         0.046471      0.038479     -0.013273
O	     12.08555      5.90404      7.05361         0.000954     -0.021562      0.058479
O	     10.05392      7.87752      2.52396         0.043221     -0.033038     -0.029251
O	     12.15091      9.83683      7.04663        -0.006220      0.006039      0.056682
