# total energy = -684.70774762 eV
 
CRYSTAL
PRIMVEC
12.076439 -0.002113 0.000874 
0.001209 7.881413 0.014435 
4.024939 3.922221 9.030352 
PRIMCOORD
84 1
Li	      4.02521      5.90613      4.62893        -0.001053     -0.002640     -0.044560
Li	      6.04417      3.92167      8.69643        -0.009904      0.003222     -0.031580
Li	     10.07201      7.86506      8.70501        -0.001906      0.002827     -0.034638
Li	     10.04417      3.92434      8.71350        -0.001371     -0.004732     -0.026256
Li	     14.08141      7.86559      8.71533        -0.007922      0.000962     -0.030379
Li	     14.10404      3.92021      8.72405         0.006736      0.002465     -0.025486
Li	      4.02184      3.90961      2.53748         0.003089      0.003643      0.014804
Li	      4.01897      7.90794      2.54370        -0.002580     -0.003689      0.013963
Li	      8.05680      3.92987      2.58655         0.010828      0.001653      0.017489
Li	      8.05909      7.88555      2.59823         0.011358     -0.002539      0.009946
Li	     12.07525      3.92996      2.57974        -0.011716     -0.002777      0.024643
Li	     12.07804      7.88295      2.60685        -0.009283      0.001788      0.002682
Ti	      2.00082      1.97547      2.28180        -0.035332     -0.001746      0.104273
Ti	      4.02328      3.87859      6.64114         0.018383     -0.054150      0.038249
Ti	      2.00007      5.90099      2.30563        -0.015411     -0.000997      0.078820
Ti	      4.06627      7.91346      6.65785         0.064059      0.052139      0.055784
Ti	      6.04083      1.97037      2.27328         0.035314     -0.002449      0.116443
Ti	      8.05496      3.92562      6.62036        -0.007489     -0.013131      0.007774
Ti	      6.05480      5.90683      2.29617         0.038487      0.008578      0.093325
Ti	      8.01912      7.87367      6.63454        -0.040519      0.017357      0.015931
Ti	     10.07329      1.96529      2.30664         0.007286     -0.016994      0.155753
Ti	     12.07342      3.92637      6.60712         0.002941     -0.001965      0.010058
Ti	     10.06407      5.90891      2.32514        -0.008742      0.020417      0.168347
Ti	     12.07627      7.86935      6.61306        -0.008521      0.009963      0.012568
Ti	      4.06861      5.92521      8.93193         0.049508      0.008819     -0.122839
Ti	     14.05993      3.89562      4.70555        -0.042517     -0.049667      0.020234
Ti	      4.07186      9.80064      9.01295         0.048642     -0.019995     -0.135625
Ti	     14.06219      7.91314      4.72029        -0.044498      0.044857      0.002681
Ti	      7.99949      5.92738      8.96285        -0.020261      0.032310     -0.183438
Ti	      6.06976      3.89603      4.70362         0.039976     -0.045769      0.007055
Ti	      8.00246      9.80199      8.98965        -0.011224     -0.049036     -0.188487
Ti	      6.07032      7.91599      4.68838         0.036501      0.043486      0.017489
Ti	     12.08701      5.89207      8.96613         0.005872     -0.006177     -0.165581
Ti	     10.06177      3.93375      4.69822        -0.002478     -0.003236      0.015495
Ti	     12.08588      9.83600      8.97809        -0.004162     -0.006882     -0.163414
Ti	     10.06207      7.87361      4.71878         0.000722      0.004547     -0.002671
O	      2.00831      1.88265      0.26759        -0.006959      0.003217      0.082411
O	      4.02636      3.96903      4.66039         0.005396     -0.000400      0.070409
O	      2.01599      6.00412      0.29415         0.010103      0.014665      0.069021
O	      4.02803      7.83951      4.67100         0.017759      0.008641      0.090955
O	      6.03985      1.97112      0.25225         0.017448     -0.015096      0.078752
O	      8.05377      3.93327      4.65012        -0.029214      0.007918      0.098196
O	      6.03913      5.91287      0.27429         0.006025      0.024183      0.064839
O	      8.05430      7.87416      4.66186        -0.046553     -0.007361      0.094336
O	     10.06810      1.96729      0.24534        -0.017471      0.002459      0.035158
O	     12.07256      3.93733      4.64632         0.028981      0.006210      0.098307
O	     10.06167      5.91259      0.26776        -0.016456      0.013859      0.043877
O	     12.07295      7.86929      4.65304         0.034923     -0.005898      0.108259
O	      4.02199      1.97055      2.00582        -0.008854      0.011054     -0.036916
O	      6.04243      3.91072      6.65488         0.004446      0.001718     -0.101516
O	      4.02819      5.90690      2.06479        -0.008230     -0.013317     -0.015251
O	      6.04474      7.88526      6.62298        -0.001586      0.006309     -0.177907
O	      8.05478      1.96653      2.00581        -0.007340      0.002748     -0.055717
O	     10.06369      3.92857      6.65226         0.005141      0.002709     -0.103220
O	      8.05056      5.90918      2.02844        -0.003946      0.003722     -0.037869
O	     10.05995      7.86709      6.66428         0.019066     -0.007040     -0.123453
O	     12.07574      1.96833      1.99093         0.012541      0.011451     -0.020954
O	     14.08363      3.91067      6.66252        -0.015486     -0.003376     -0.096878
O	     12.07429      5.90660      2.03811         0.002487     -0.007106     -0.028518
O	     14.09008      7.88239      6.67028        -0.022736      0.005271     -0.117327
O	      4.02019      3.92429      8.76870         0.014569     -0.002791      0.027376
O	      2.01838      1.96602      4.26237         0.003130     -0.015113     -0.042191
O	      3.98239      7.86598      8.79294         0.007305      0.003984      0.020857
O	      2.09165      5.90618      4.28952        -0.004898      0.004077     -0.050313
O	      8.05572      3.92482      8.78930        -0.029173     -0.019317      0.025553
O	      6.02689      1.96858      4.24736        -0.008254     -0.014182     -0.055674
O	      8.09393      7.86444      8.81159        -0.029058      0.030121      0.012456
O	      5.96258      5.90210      4.27051         0.001700      0.004878     -0.071090
O	     12.07505      3.92299      8.79427        -0.000096      0.003524      0.034622
O	     10.06748      1.96300      4.24856         0.001941     -0.006637     -0.113186
O	     12.07758      7.86456      8.80508        -0.001317      0.000576      0.018435
O	     10.06073      5.90431      4.26261         0.000948      0.004942     -0.118380
O	      2.00768      3.93617      2.53192         0.000497      0.008277     -0.033863
O	      4.03113      5.89842      6.96551        -0.008420      0.015527      0.044750
O	      2.00887      7.88185      2.54360         0.002254     -0.011176     -0.035978
O	      4.02858      9.83726      7.04098        -0.007503     -0.013555      0.033068
O	      6.04361      3.93537      2.50051        -0.012483      0.002137     -0.021848
O	      8.04409      5.89963      7.03920         0.000412      0.007209      0.122857
O	      6.04304      7.88201      2.50100        -0.019255     -0.012883     -0.020554
O	      8.05493      9.83685      7.06059         0.000784     -0.017995      0.131930
O	     10.06414      3.93577      2.49960         0.010406      0.006414     -0.005551
O	     12.07847      5.89662      7.03679        -0.002257     -0.006416      0.128661
O	     10.06546      7.87887      2.50591         0.005102     -0.011973     -0.012182
O	     12.06732      9.83807      7.04886         0.001366      0.003367      0.112399
