# total energy = -684.70675931 eV
 
CRYSTAL
PRIMVEC
12.069557 -0.001812 0.001206 
0.001422 7.883019 0.015538 
4.023252 3.924195 9.026581 
PRIMCOORD
84 1
Li	      6.04352      7.87083      8.70582        -0.021332      0.001497     -0.038356
Li	      4.02209      5.90187      4.63608         0.002145      0.000235     -0.041069
Li	     10.03900      7.86719      8.72272         0.001557      0.002230     -0.033873
Li	     10.06571      3.92627      8.70015         0.002526     -0.003166     -0.039712
Li	     14.09535      7.86993      8.73435         0.011193     -0.000253     -0.037375
Li	     14.07078      3.92414      8.71458        -0.003934      0.000334     -0.039526
Li	      4.01571      3.90726      2.53478        -0.001916      0.008336      0.013216
Li	      4.01891      7.90649      2.54323         0.003868     -0.008719      0.012304
Li	      8.05290      3.92792      2.58756         0.017091      0.002734      0.012053
Li	      8.05193      7.88474      2.58838         0.014954     -0.000969      0.020396
Li	     12.07123      3.93027      2.59738        -0.014853     -0.005002      0.003710
Li	     12.06908      7.88332      2.58185        -0.016252      0.003943      0.022822
Ti	      1.99923      1.95952      2.28105        -0.049719      0.003422      0.101415
Ti	      4.06272      3.88894      6.65070         0.057208     -0.052155      0.057242
Ti	      1.99706      5.91539      2.30907        -0.015157      0.014895      0.083960
Ti	      4.02091      7.92245      6.64565         0.016382      0.054690      0.051502
Ti	      6.03665      1.96343      2.27434         0.044395      0.006325      0.109622
Ti	      8.01445      3.92518      6.62636        -0.036244     -0.008486      0.009132
Ti	      6.05105      5.90812      2.29734         0.045303      0.015243      0.087202
Ti	      8.05118      7.87410      6.62584        -0.004356      0.012105      0.010984
Ti	     10.06772      1.96734      2.30646         0.008805      0.020571      0.162123
Ti	     12.06904      3.92718      6.60333        -0.006929     -0.003845      0.020100
Ti	     10.05863      5.90492      2.32579        -0.015051     -0.005137      0.176396
Ti	     12.06667      7.87114      6.61114         0.003898      0.008370      0.015172
Ti	      4.06618      5.86797      8.92434         0.045380     -0.017769     -0.122136
Ti	     14.05506      3.88843      4.71234        -0.052558     -0.042729      0.006434
Ti	      4.06915      9.87391      9.00236         0.039714      0.010976     -0.140267
Ti	     14.05243      7.91011      4.71081        -0.042492      0.046348      0.017331
Ti	      7.99590      5.86368      8.95782        -0.016048     -0.036924     -0.196265
Ti	      6.06581      3.89076      4.68090         0.036139     -0.043750      0.012815
Ti	      7.99806      9.87123      8.98491         0.004089      0.042368     -0.201900
Ti	      6.06694      7.91176      4.70963         0.032211      0.043962     -0.002017
Ti	     12.07988      5.89778      8.96090         0.006072     -0.004438     -0.171776
Ti	     10.05513      3.93197      4.71040         0.005756     -0.007810     -0.009356
Ti	     12.07895      9.83521      8.97337        -0.007909      0.004953     -0.168701
Ti	     10.05551      7.87321      4.70385         0.006252      0.001401      0.004464
O	      2.00701      2.06107      0.26675        -0.012010      0.003389      0.089545
O	      4.02575      3.96790      4.66317         0.010504     -0.006753      0.072952
O	      2.01331      5.82325      0.29526        -0.000219     -0.009322      0.078333
O	      4.02485      7.83900      4.66427        -0.001217      0.004871      0.066964
O	      6.03599      1.97223      0.25200         0.014702      0.015786      0.085454
O	      8.04863      3.93207      4.65301        -0.044628      0.008982      0.092300
O	      6.03515      5.91131      0.27442        -0.007329     -0.019216      0.069527
O	      8.04900      7.87379      4.65508        -0.023024     -0.010039      0.096027
O	     10.06162      1.97477      0.24434        -0.015390      0.002844      0.040681
O	     12.06622      3.93491      4.64369         0.027883      0.009601      0.110189
O	     10.05637      5.91062      0.26673        -0.007316     -0.011607      0.053488
O	     12.06591      7.86864      4.64991         0.029332     -0.005048      0.110852
O	      4.01925      1.96481      2.00381        -0.009934     -0.010885     -0.025527
O	      6.04039      3.91575      6.61603         0.002695     -0.006092     -0.180848
O	      4.02375      5.91041      2.06100        -0.007808      0.005176     -0.008993
O	      6.03941      7.89028      6.66070         0.009083     -0.001871     -0.103663
O	      8.05013      1.96782      2.00395        -0.014902     -0.004655     -0.047035
O	     10.05454      3.93149      6.65586         0.007376     -0.000504     -0.126886
O	      8.04654      5.90625      2.02678        -0.010291     -0.004425     -0.026602
O	     10.05892      7.87125      6.65827        -0.004253     -0.009410     -0.109917
O	     12.06792      1.96549      1.98997         0.023220     -0.012210     -0.024226
O	     14.08089      3.91583      6.66305        -0.021874     -0.010948     -0.127965
O	     12.06674      5.90815      2.03548         0.021705      0.003259     -0.037116
O	     14.07501      7.88685      6.66768        -0.011287     -0.000557     -0.098582
O	      3.97652      3.92754      8.78225         0.024625     -0.006336      0.026532
O	      2.01858      1.96151      4.26263         0.001316      0.018488     -0.055568
O	      4.01720      7.86948      8.76935         0.025993      0.001932      0.047246
O	      2.09076      5.90319      4.28844        -0.008073      0.000132     -0.055314
O	      8.09022      3.92650      8.80017        -0.040307     -0.032478      0.013178
O	      6.02216      1.95805      4.24653        -0.005565      0.016349     -0.051105
O	      8.05202      7.86692      8.79278        -0.033662      0.027188      0.030639
O	      5.95752      5.90684      4.26902         0.007404     -0.005954     -0.060373
O	     12.06991      3.92447      8.79487        -0.003255      0.005478      0.022077
O	     10.06049      1.96247      4.24797         0.004068      0.002083     -0.118124
O	     12.06902      7.86744      8.79756        -0.003397     -0.001400      0.040548
O	     10.05534      5.90313      4.26215        -0.000552      0.000414     -0.122086
O	      2.00672      3.93412      2.53550         0.008808     -0.004501     -0.038262
O	      4.02755      5.90199      6.95573        -0.005680     -0.013391      0.051508
O	      2.00601      7.88036      2.53789         0.005839     -0.000426     -0.029879
O	      4.02429      9.84457      7.03205        -0.002234      0.014223      0.051509
O	      6.03862      3.93317      2.49369        -0.020861      0.002373     -0.028183
O	      8.04092      5.89927      7.03464        -0.004833     -0.017329      0.124531
O	      6.04087      7.88050      2.50639        -0.015869     -0.009049     -0.022996
O	      8.05087      9.84346      7.05587        -0.002365      0.012208      0.143098
O	     10.05927      3.93529      2.49849         0.001593      0.000082     -0.021450
O	     12.07045      5.90003      7.03268         0.001122      0.001922      0.125398
O	     10.05896      7.87845      2.50510         0.004314     -0.001462     -0.006452
O	     12.05973      9.84043      7.04430         0.006366     -0.004703      0.116515
