# total energy = -687.56017186 eV
 
CRYSTAL
PRIMVEC
12.183255 -0.002035 0.022333 
0.001376 7.947677 0.015200 
4.074769 3.956573 8.812656 
PRIMCOORD
85 1
Li	     10.14957      7.93135      8.73756         0.005154      0.001097     -0.020046
Li	      8.10571      5.96083      4.42839         0.007147     -0.011109     -0.021217
Li	     10.14707      3.95757      8.73318        -0.000255      0.000911     -0.024158
Li	      8.10621      9.91843      4.43697         0.007036      0.008307     -0.021273
Li	     14.29034      7.93094      8.76459        -0.003338      0.000432     -0.039886
Li	     12.24711      5.95497      4.40228        -0.004566      0.005668     -0.035918
Li	     14.28922      3.95735      8.73719         0.005174     -0.000246     -0.039335
Li	     12.24621      1.97509      4.39456        -0.005756     -0.004530     -0.037078
Li	      4.02872      3.97038      2.35935        -0.004152     -0.002224      0.014634
Li	      8.08326      3.96990      2.22567         0.006224      0.000711      0.012118
Li	     10.15416      5.94787      6.58774         0.006816      0.001088      0.002561
Li	      8.11376      7.94401      2.22632         0.004865     -0.002914      0.015849
Li	     10.15475      9.92242      6.59529         0.007215     -0.004885      0.003162
Ti	      2.00698      1.94189      2.20514        -0.044046     -0.073890     -0.008002
Ti	      4.07943      3.96557      6.53881         0.003795     -0.002250      0.020585
Ti	      2.00819      6.00340      2.21321        -0.044029      0.064604     -0.006124
Ti	      4.07905      7.93960      6.57649        -0.017830     -0.007367     -0.007067
Ti	      5.99135      1.94905      2.18275        -0.163291     -0.031934      0.075342
Ti	      7.98714      3.96125      6.61360        -0.219425      0.002924      0.030877
Ti	      5.99221      5.99043      2.19053        -0.160639      0.030418      0.076228
Ti	      7.98205      7.93490      6.63630        -0.227677      0.002109      0.036668
Ti	     10.26601      1.98696      2.26608         0.135313      0.008806     -0.042659
Ti	     12.30180      3.96066      6.65937         0.161856      0.002576     -0.057426
Ti	     10.26732      5.95147      2.27340         0.131328     -0.000628     -0.043196
Ti	     12.30383      7.93451      6.66433         0.170096      0.004176     -0.068570
Ti	      0.06973      1.98500      0.04094         0.091810      0.005831     -0.047871
Ti	      2.12308      3.96596      4.52948         0.086200      0.005537     -0.009096
Ti	      0.07078      5.96878      0.04848         0.091355      0.007093     -0.044260
Ti	      2.14810      7.94031      4.55423         0.114142      0.002068     -0.033731
Ti	      7.95142      5.92735      8.75958        -0.232762     -0.006321      0.059851
Ti	      5.99267      3.96599      4.50791        -0.128023     -0.000704      0.026732
Ti	      7.95214      9.93560      8.76697        -0.229046      0.006651      0.063385
Ti	      5.95998      7.93991      4.51034        -0.186495     -0.003934      0.025050
Ti	     12.26220      5.94273      8.78566         0.060192      0.022144      0.017908
Ti	     10.20923      3.96504      4.40418         0.018226      0.002632     -0.025321
Ti	     12.26306      9.91860      8.79309         0.057284     -0.011239      0.020054
Ti	     10.20767      7.93908      4.42048         0.028256      0.004019     -0.011949
O	      2.01712      1.98105      0.18671         0.148071      0.002742      0.035276
O	      4.07006      3.96613      4.50263         0.048540     -0.005070      0.050676
O	      2.01809      5.96798      0.19487         0.144065     -0.000164      0.029584
O	      4.06746      7.93982      4.55909         0.072392      0.001038      0.091595
O	      6.14000      1.98304      0.17053         0.011859     -0.002270      0.041098
O	      8.16268      3.96559      4.55596         0.020690     -0.000991      0.054006
O	      6.14076      5.96568      0.17807         0.013950     -0.004441      0.040428
O	      8.17044      7.93934      4.58267         0.012721     -0.000167      0.053876
O	     10.13724      1.98483      0.23616        -0.085309     -0.003257      0.027073
O	     12.16938      3.96445      4.62855        -0.038134      0.000665      0.066846
O	     10.13802      5.96215      0.24381        -0.084645      0.000247      0.026354
O	     12.16557      7.93816      4.64419        -0.048996      0.000313      0.047653
O	      4.07924      2.04039      1.95861         0.135183     -0.007462     -0.064758
O	      6.09678      3.96257      6.47397         0.148030      0.002792     -0.086157
O	      4.08016      5.90195      1.96606         0.133180      0.007190     -0.065182
O	      6.09543      7.93654      6.47936         0.169081      0.003391     -0.099486
O	      8.11320      1.98451      2.05179        -0.014535      0.004979     -0.043174
O	     10.17098      3.96150      6.48342        -0.007415      0.002765     -0.012955
O	      8.11367      5.95603      2.05941        -0.013789     -0.001271     -0.045237
O	     10.17028      7.93530      6.49670        -0.028866      0.001241     -0.009697
O	     12.18101      1.98143      2.14463        -0.082943      0.000445      0.009491
O	     14.21305      3.96093      6.59280        -0.120035      0.001308     -0.023306
O	     12.18218      5.95773      2.15191        -0.082203     -0.002703      0.011081
O	     14.21768      7.93479      6.61071        -0.094438      0.002939     -0.011895
O	      4.02899      3.95904      8.62857         0.004755     -0.004751      0.017138
O	      1.99354      1.97595      4.24188        -0.000637      0.002555     -0.004672
O	      4.03339      7.93270      8.64812         0.000710     -0.005720      0.006943
O	      1.99459      5.95810      4.24901        -0.003391     -0.003117     -0.004358
O	      8.20569      3.95774      8.61004        -0.017039     -0.004795     -0.035957
O	      6.16506      1.97597      4.16396         0.013812      0.001276     -0.078759
O	      8.20299      7.93161      8.63287        -0.014436     -0.008320     -0.045892
O	      6.16577      5.95691      4.17181         0.013287     -0.001081     -0.078192
O	     12.21447      3.95687      8.75185        -0.003130     -0.001215     -0.039234
O	     10.16981      1.97707      4.35848         0.018588      0.001558     -0.035797
O	     12.21132      7.93068      8.75694        -0.002195     -0.001370     -0.025543
O	     10.17073      5.95388      4.36555         0.017283     -0.004457     -0.036264
O	      2.09638      3.97033      2.49241        -0.002539      0.002160      0.028515
O	      4.07599      5.94713      6.88327         0.001357     -0.006345      0.064130
O	      2.05450      7.94498      2.50184        -0.005157     -0.003636      0.018121
O	      4.07676      9.92627      6.89103         0.002422     -0.005256      0.061999
O	      6.07846      3.97038      2.36649         0.004158     -0.000663     -0.015449
O	      8.18653      5.94866      6.72309        -0.006317      0.007929      0.018160
O	      6.12898      7.94400      2.37358         0.005468      0.004966     -0.021190
O	      8.18715      9.92192      6.73084        -0.007099     -0.000947      0.014666
O	     10.07482      3.96973      2.35383         0.038365     -0.001763      0.025444
O	     12.12731      5.94954      6.74101         0.011413     -0.016093      0.073575
O	     10.07750      7.94306      2.37804         0.034379      0.002270      0.038676
O	     12.12799      9.91949      6.74848         0.011329      0.016926      0.073928
