# total energy = -687.48045122 eV
 
CRYSTAL
PRIMVEC
12.113385 -0.003208 0.024594 
0.000570 7.991443 0.018041 
4.052529 3.981219 8.835698 
PRIMCOORD
85 1
Li	     10.13230      7.98294      8.83688         0.018214      0.002238     -0.000867
Li	      8.10673      5.98669      4.48410        -0.018616     -0.003492      0.004241
Li	      6.04429      7.98666      0.05398         0.016840     -0.003339      0.017660
Li	      8.07139      9.98382      4.55198        -0.012680     -0.001003      0.018419
Li	     14.19664      7.97377      8.72434        -0.011442     -0.001493     -0.040948
Li	     12.15870      5.97983      4.42311        -0.002868      0.001819     -0.008787
Li	      3.98919      3.99584      2.21923         0.013256      0.000765     -0.004212
Li	      6.01503      5.98146      6.69390        -0.004400     -0.000780      0.019915
Li	      4.00089      7.98946      2.30993         0.017788     -0.003006      0.041528
Li	      8.09168      3.98882      2.23167        -0.010982      0.003191     -0.008899
Li	     10.09656      5.97660      6.65492         0.013684      0.000142      0.001255
Li	      8.08227      7.99633      2.22558        -0.016311     -0.002747     -0.010487
Li	     10.12897      9.99126      6.61940         0.007128     -0.000877     -0.015424
Ti	      1.94071      1.96963      2.16030        -0.081201     -0.035515      0.008413
Ti	      4.01712      3.92684      6.58795        -0.068508     -0.107592      0.033855
Ti	      1.96007      6.02038      2.22438        -0.098274      0.021014     -0.006472
Ti	      4.01589      8.02292      6.54293        -0.048716      0.015546      0.037938
Ti	      6.02725      1.99854      2.23748        -0.064429     -0.054914      0.154397
Ti	      7.99749      3.95049      6.70527        -0.122754     -0.132509     -0.118369
Ti	      6.00154      5.99011      2.26408        -0.079511      0.042130      0.163446
Ti	      7.99141      8.01697      6.71428        -0.127883      0.090123     -0.085191
Ti	     10.24029      1.97714      2.27732         0.227157     -0.050582     -0.000289
Ti	     12.28312      3.97294      6.73308         0.242969     -0.055965     -0.068447
Ti	     10.19571      6.02356      2.22645         0.136213      0.067971     -0.087103
Ti	     12.23294      8.01060      6.65090         0.211188      0.008738      0.025213
Ti	      4.06533      5.95275      8.83652         0.061672     -0.059718     -0.045545
Ti	      2.05460      3.91895      4.45523         0.044862     -0.119598      0.060791
Ti	      0.03119      6.00454      0.04897         0.050183      0.068475     -0.046578
Ti	     14.17274      8.02209      4.57925         0.045908      0.040956      0.014247
Ti	      7.98758      5.98513      8.80044        -0.125908     -0.012928      0.210368
Ti	      5.97118      3.96892      4.42825        -0.212087     -0.036005     -0.070342
Ti	      7.94133      9.97228      8.75646        -0.214748      0.005577      0.117266
Ti	      5.96724      8.00884      4.47238        -0.257669     -0.023719     -0.178323
Ti	     12.22846      5.95265      8.80876         0.172447     -0.006935     -0.038779
Ti	     10.19976      3.95438      4.44033         0.188763     -0.096611     -0.043411
Ti	     12.20443     10.00498      8.84692         0.155519      0.002822     -0.049509
Ti	     10.18073      8.01816      4.47185         0.182187      0.068795     -0.075547
O	      2.02016      1.99496      0.11524         0.078189      0.022533     -0.007799
O	      4.04634      3.97310      4.53792         0.075817      0.038853      0.000006
O	      2.02339      5.98486      0.21168         0.151579     -0.006556     -0.007518
O	      4.05079      7.99637      4.49888         0.098894      0.014326      0.056932
O	      6.07453      1.99741      0.16182         0.000400      0.008111     -0.018402
O	      8.09838      3.98945      4.60186         0.035014      0.024311      0.035066
O	      6.07193      5.99306      0.19435        -0.003171      0.006033     -0.024619
O	      8.10208      7.98415      4.61781         0.027987      0.004559      0.069479
O	     10.08018      2.05486      0.26083        -0.099285      0.037589      0.002269
O	     12.10924      4.03792      4.70450        -0.121416      0.045243     -0.023838
O	     10.08227      5.92688      0.24529        -0.089497     -0.023760      0.047353
O	     12.10451      7.93073      4.65452        -0.148970      0.013835      0.040966
O	      4.06471      1.99457      1.99780         0.059835      0.003619     -0.056762
O	      6.08142      4.04592      6.42285         0.113353      0.033720      0.016849
O	      4.05651      5.99234      2.00296         0.067415      0.010774     -0.022925
O	      6.08049      7.92503      6.46299         0.171587      0.020440      0.001327
O	      8.04729      1.99893      2.05497        -0.028936      0.012482      0.006970
O	     10.07737      3.98900      6.49802        -0.049280      0.012063     -0.006518
O	      8.04760      5.98980      2.08835        -0.030780     -0.006405      0.002379
O	     10.07734      7.98224      6.52811        -0.036294      0.004199     -0.011162
O	     12.11556      1.97673      2.06078        -0.121968      0.010417     -0.016415
O	     14.15218      3.98051      6.48681        -0.125511      0.028267      0.001625
O	     12.12414      6.00396      2.12726        -0.036965     -0.004639     -0.003170
O	     14.14622      7.99161      6.61461        -0.103446      0.013999     -0.053542
O	      4.04406      3.97121      8.57419        -0.005082     -0.021279     -0.006357
O	      2.00932      1.98587      4.17844        -0.005586      0.041762     -0.033655
O	      4.01073      7.98080      8.61187        -0.006402      0.001858     -0.002285
O	      1.97538      5.99470      4.20419        -0.002150     -0.000298     -0.059243
O	      8.15026      3.98778      8.71772        -0.023128      0.063156     -0.111780
O	      6.14644      1.98623      4.24256         0.073914      0.065034      0.076898
O	      8.15641      7.97189      8.74411        -0.029079     -0.072792     -0.097707
O	      6.13955      5.99644      4.27504         0.067782     -0.058841      0.097007
O	     12.08492      3.98277      8.77998        -0.019953     -0.005561     -0.022769
O	     10.05779      1.99217      4.34566        -0.028559      0.013924      0.018553
O	     12.13221      7.97711      8.75192        -0.024121     -0.003080      0.025038
O	     10.11426      5.98597      4.32155        -0.027787     -0.015662      0.000569
O	      2.06609      3.98378      2.45619        -0.002935     -0.018686      0.008784
O	      4.09239      5.98350      6.84756        -0.000667      0.005577      0.031304
O	      2.07074      7.99478      2.45418        -0.003065      0.004326     -0.000829
O	      4.06571      9.97931      6.87152         0.002268      0.038534      0.023087
O	      6.05072      3.99577      2.32815         0.017167     -0.013133     -0.075612
O	      8.08121      5.98436      6.75034        -0.024378      0.002993      0.106474
O	      6.05238      7.98752      2.34669         0.022050      0.019801     -0.120899
O	      8.12883      9.98045      6.71809        -0.035518      0.012296      0.060583
O	     10.03597      4.00440      2.44924        -0.022705      0.035285      0.067576
O	     12.05695      5.99550      6.81187        -0.018868     -0.041269      0.017225
O	     10.01798      7.98072      2.46572        -0.005869     -0.054410      0.036486
O	     12.05136      9.97615      6.85180        -0.008868      0.045478      0.007578
