# total energy = -690.99066512 eV
 
CRYSTAL
PRIMVEC
12.149930 -0.004762 0.035907 
-0.000423 7.990413 0.021140 
4.072339 3.983560 8.794999 
PRIMCOORD
86 1
Li	      2.02007      3.99714      0.07599         0.022515      0.001790      0.014649
Li	      4.05624      5.98892      4.47349         0.022701      0.001887      0.014847
Li	      2.05931      7.99115      0.04263         0.007710     -0.004011      0.000828
Li	      4.09548      9.98293      4.44013         0.007903     -0.004111      0.001089
Li	     10.18531      3.97973      8.67396        -0.000056      0.009549     -0.056792
Li	      8.14914      1.98795      4.27646         0.000017      0.009657     -0.056726
Li	      4.06204      4.00438      2.22203         0.014088     -0.000601      0.007694
Li	      6.09821      5.99616      6.61953         0.013888     -0.000691      0.007783
Li	      4.06925      7.98202      2.22898         0.006893      0.003604      0.005637
Li	      6.10542      9.97380      6.62648         0.006804      0.003696      0.005578
Li	     12.10710      3.99214      2.33956        -0.018185      0.000737      0.022464
Li	     14.14327      5.98392      6.73706        -0.017768      0.000885      0.022686
Li	     12.10081      7.97780      2.27463        -0.005494      0.000709     -0.006230
Li	     14.13698      9.96958      6.67213        -0.005311      0.000542     -0.006070
Ti	      1.97108      1.99508      2.27521        -0.019456     -0.065823     -0.103089
Ti	      4.00725      3.98686      6.67271        -0.019209     -0.065219     -0.102198
Ti	      1.97953      5.99134      2.28860        -0.024852      0.060098     -0.114339
Ti	      4.01570      7.98312      6.68610        -0.024718      0.059461     -0.114160
Ti	      6.18977      2.03369      2.17637         0.231591      0.017422      0.092504
Ti	      8.22594      4.02547      6.57387         0.231726      0.017492      0.092506
Ti	      6.23341      5.97624      2.27131         0.246791     -0.069311      0.019197
Ti	      8.26958      7.96802      6.66881         0.246609     -0.069623      0.019073
Ti	     10.06480      2.01118      2.12840        -0.049681      0.014389      0.017331
Ti	     12.10097      4.00296      6.52589        -0.050380      0.014342      0.018133
Ti	     10.04912      5.95763      2.19524        -0.065472     -0.035040      0.041656
Ti	     12.08529      7.94941      6.59274        -0.065255     -0.034988      0.041644
Ti	     16.12885      5.97441      8.81782        -0.186878     -0.030959      0.190974
Ti	     14.09268      3.98263      4.42032        -0.186187     -0.030364      0.191369
Ti	     16.13264      9.97634      8.80241        -0.165397      0.002919      0.170594
Ti	     14.09647      7.98456      4.40491        -0.165582      0.002300      0.170840
Ti	      4.12850      2.03137      0.03838         0.252596     -0.028496     -0.163194
Ti	      6.16467      4.02315      4.43588         0.252531     -0.027974     -0.162414
Ti	      8.21443      9.94770      8.80975         0.216051      0.003866     -0.106619
Ti	      6.17826      7.95592      4.41225         0.216039      0.003170     -0.106519
Ti	      8.12526      2.00782      0.12850         0.060156      0.026996     -0.012526
Ti	     10.16143      3.99960      4.52600         0.059033      0.027015     -0.012418
Ti	      8.11748      5.96416      0.05647         0.094519     -0.063311     -0.002485
Ti	     10.15365      7.95594      4.45397         0.094451     -0.063302     -0.002597
O	      2.03987      1.99800      0.16494         0.011665      0.017185      0.044147
O	      4.07604      3.98978      4.56244         0.011425      0.017107      0.043938
O	      2.03742      5.99344      0.16868         0.005313     -0.005144      0.044615
O	      4.07359      7.98522      4.56618         0.005260     -0.005075      0.044524
O	      6.05990      1.94030      0.19701        -0.158811     -0.003793      0.037142
O	      8.09607      3.93208      4.59451        -0.158849     -0.003867      0.036670
O	      6.05871      6.04740      0.26411        -0.110969      0.039120      0.017029
O	      8.09488      8.03918      4.66161        -0.110697      0.039131      0.016879
O	     10.13649      1.99042      0.08636         0.097398      0.001951     -0.017182
O	     12.17266      3.98220      4.48386         0.097904      0.001925     -0.016547
O	     10.13835      5.98882      0.14793         0.052161      0.012588     -0.051681
O	     12.17451      7.98060      4.54543         0.052017      0.012589     -0.051756
O	      4.01455      1.99573      2.09091        -0.045460      0.010865      0.001069
O	      6.05071      3.98751      6.48841        -0.045464      0.010792      0.001117
O	      4.01269      5.99592      2.07982        -0.066254     -0.014157      0.012079
O	      6.04886      7.98770      6.47731        -0.066158     -0.014091      0.012330
O	      8.10786      2.01113      2.16468        -0.113997     -0.011421     -0.041663
O	     10.14403      4.00291      6.56218        -0.113357     -0.011458     -0.041608
O	      8.11365      5.97450      2.07870        -0.156967      0.013679     -0.024797
O	     10.14982      7.96628      6.47620        -0.156896      0.013720     -0.024734
O	     12.17757      1.99372      2.06015         0.085763      0.005868     -0.010965
O	     14.21374      3.98550      6.45765         0.085273      0.005765     -0.011392
O	     12.17900      5.98546      2.04457         0.090036     -0.006710      0.016709
O	     14.21517      7.97724      6.44207         0.089899     -0.006620      0.016908
O	      4.14670      3.98701      8.70981        -0.016040      0.044972     -0.055675
O	      2.11053      1.99523      4.31231        -0.015939      0.045443     -0.056273
O	      4.14083      7.97763      8.70702        -0.007211     -0.047661     -0.083280
O	      2.10466      5.98585      4.30952        -0.007167     -0.048158     -0.083346
O	      8.13164      3.98523      8.69411        -0.063839     -0.002698      0.087816
O	      6.09547      1.99345      4.29661        -0.063731     -0.002320      0.087404
O	      8.07876      7.98045      8.73709        -0.062205      0.011195      0.002174
O	      6.04259      5.98867      4.33959        -0.062088      0.010740      0.002118
O	     12.11972      3.98274      8.59112        -0.010345     -0.022157     -0.012389
O	     10.08355      1.99096      4.19362        -0.010391     -0.022187     -0.012149
O	     12.15907      7.97287      8.58014        -0.011266      0.018030     -0.045000
O	     10.12290      5.98109      4.18264        -0.011247      0.018056     -0.044988
O	      2.02052      3.99354      2.29364        -0.012728      0.013647      0.051674
O	      4.05669      5.98532      6.69114        -0.012769      0.013983      0.051043
O	      2.01834      7.98824      2.29855        -0.015580      0.018118      0.022190
O	      4.05452      9.98002      6.69605        -0.015788      0.017733      0.022235
O	      5.99936      3.98750      2.42882        -0.051044      0.069535     -0.015900
O	      8.03553      5.97928      6.82631        -0.051166      0.069892     -0.016427
O	      6.01414      8.00280      2.42329        -0.049266     -0.044544     -0.005474
O	      8.05031      9.99458      6.82079        -0.049334     -0.044894     -0.005502
O	     10.17936      3.98921      2.42467        -0.000248      0.030743     -0.013753
O	     12.21553      5.98099      6.82217        -0.000287      0.030796     -0.013728
O	     10.17835      7.98252      2.44281        -0.007660      0.006556      0.021895
O	     12.21452      9.97430      6.84031        -0.007627      0.006527      0.021806
