# total energy = -694.29151460 eV
 
CRYSTAL
PRIMVEC
12.254263 -0.001804 -0.009551 
0.001473 7.987587 0.015010 
4.076730 3.976573 8.703372 
PRIMCOORD
87 1
Li	      1.98767      3.99510      0.02423        -0.001000     -0.002892      0.000898
Li	      4.05165      5.98491      4.33933        -0.012230     -0.003035     -0.048415
Li	      2.01861      7.98865      0.02452        -0.017869     -0.001468     -0.001545
Li	      4.05094      1.98793      4.33191        -0.011501      0.001071     -0.049427
Li	      8.21481      5.98910      4.34278         0.006407      0.011062     -0.001461
Li	     10.24680      3.97777      8.69162        -0.003349      0.001021     -0.000192
Li	      8.21398      1.98276      4.33535         0.005415     -0.007037      0.000267
Li	      4.04643      3.99080      2.16714        -0.001430      0.000150     -0.008061
Li	      6.08558      5.98423      6.57504         0.008960      0.002637      0.014871
Li	      4.04907      7.98457      2.19532        -0.005522      0.001594      0.015785
Li	      6.08640      9.96751      6.58300         0.008878     -0.004273      0.014885
Li	      8.18864      3.99072      2.14956         0.013618      0.000835      0.004044
Li	     10.25222      6.00120      6.56946         0.005196      0.007956      0.025394
Li	      8.19538      7.98454      2.16385         0.013436     -0.000396      0.012677
Li	     10.25285      9.94935      6.57779         0.006345     -0.001744      0.021741
Ti	      1.86794      1.99220      2.14031        -0.243751     -0.005958      0.086905
Ti	      3.92066      3.98224      6.48732        -0.215869     -0.000927      0.024495
Ti	      1.86882      5.98973      2.14737        -0.241092      0.002404      0.090396
Ti	      3.92085      7.97649      6.48344        -0.189276     -0.002998      0.014342
Ti	      6.13625      2.01543      2.19570         0.036365      0.085153     -0.172210
Ti	      8.16319      3.98172      6.57756         0.039436     -0.000631     -0.126201
Ti	      6.13666      5.96587      2.20334         0.040553     -0.086147     -0.166471
Ti	      8.19324      7.97569      6.63277         0.075179     -0.007101      0.010365
Ti	     10.28744      2.00010      2.09961         0.058024     -0.007902     -0.040267
Ti	     12.35918      3.98207      6.49043         0.169455     -0.006068     -0.041024
Ti	     10.28871      5.98019      2.10679         0.054982      0.004822     -0.027666
Ti	     12.36219      7.97612      6.49773         0.166899     -0.006953     -0.007711
Ti	     12.11478      1.99698      0.03285        -0.208682      0.005965      0.056565
Ti	     14.19429      3.98483      4.41439        -0.112894      0.000944      0.021890
Ti	     12.11591      5.98997      0.04107        -0.209306      0.004097      0.048090
Ti	     14.20690      7.97809      4.42701        -0.078624      0.007594      0.019851
Ti	      8.22365      6.01334      8.67912         0.054477      0.259603      0.086596
Ti	      6.12381      3.98602      4.33171        -0.065314      0.004051      0.094624
Ti	      8.22484      9.92938      8.68672         0.052208     -0.256283      0.079767
Ti	      6.14486      7.97962      4.34272        -0.012281      0.003401      0.186187
Ti	      8.28265      2.02961      0.05560         0.147394      0.057016     -0.014541
Ti	     10.37632      3.98572      4.39090         0.240273      0.004781     -0.082755
Ti	      8.28330      5.96016      0.06359         0.149384     -0.055983     -0.025148
Ti	     10.38484      7.97967      4.37063         0.210030      0.001480     -0.052376
O	      2.08414      1.99611      0.11911         0.066913     -0.005550      0.030808
O	      4.11886      3.98658      4.43406         0.080555     -0.001730      0.000400
O	      2.08517      5.99413      0.12630         0.064780      0.001243      0.035281
O	      4.12236      7.98038      4.43174         0.060756     -0.006141     -0.001579
O	      6.08056      1.95021      0.13001        -0.113199     -0.019666      0.055523
O	      8.12011      3.98552      4.50240        -0.011648      0.002084      0.067179
O	      6.08172      6.03871      0.13754        -0.113831      0.019382      0.057843
O	      8.11952      7.97942      4.50634        -0.032424      0.001038     -0.023947
O	     10.20540      1.99109      0.08762         0.060801     -0.002076      0.085610
O	     12.26255      3.98519      4.46830        -0.067322     -0.000002      0.102478
O	     10.20624      5.99732      0.09542         0.061319     -0.005323      0.086701
O	     12.26264      7.97934      4.47835        -0.081981     -0.002568      0.107153
O	      4.13135      1.99471      2.05128         0.014200     -0.022258     -0.039644
O	      6.17463      3.98235      6.41170         0.028031     -0.001408     -0.031752
O	      4.13232      5.98710      2.05896         0.013825      0.022742     -0.038693
O	      6.18467      7.97623      6.41044        -0.003494     -0.001686     -0.028061
O	      8.13620      1.99944      2.12319        -0.064291     -0.008485      0.016111
O	     10.16558      3.98194      6.43492        -0.077015     -0.006387     -0.019840
O	      8.13699      5.98251      2.13071        -0.065994     -0.006778      0.014716
O	     10.15670      7.97563      6.36956        -0.070785      0.000661     -0.068006
O	     12.23587      1.99147      2.04209         0.079862      0.004162     -0.123058
O	     14.28308      3.98158      6.43216         0.016897     -0.001931     -0.088180
O	     12.23683      5.98815      2.05033         0.076896     -0.005572     -0.128408
O	     14.28035      7.97552      6.44475         0.006397     -0.003482     -0.092880
O	      4.15029      3.97868      8.48142        -0.008638     -0.001951     -0.088900
O	      2.11763      1.99011      4.13103         0.015060      0.001749     -0.071141
O	      4.14184      7.97252      8.49006        -0.003603     -0.000523     -0.085848
O	      2.11838      5.98416      4.13855         0.014775     -0.002424     -0.069616
O	      8.14154      3.97764      8.62234         0.026816      0.004256     -0.116780
O	      6.10931      1.98679      4.29757         0.025934     -0.015014     -0.078525
O	      8.09026      7.97140      8.68594         0.033818      0.001020     -0.021273
O	      6.11032      5.98549      4.30546         0.022907      0.026604     -0.079210
O	     12.20199      3.97736      8.61435        -0.024238      0.005310      0.015737
O	     10.17769      1.99256      4.23764        -0.000743     -0.002860      0.019798
O	     12.26108      7.97141      8.62183        -0.008781      0.004708      0.002208
O	     10.17843      5.97919      4.24536        -0.000418      0.013478      0.017371
O	      2.06803      3.99075      2.29088         0.016316      0.000670     -0.024703
O	      4.12060      5.97939      6.62532         0.021458     -0.001613     -0.014446
O	      2.07366      7.98442      2.29357         0.013518      0.000223     -0.025050
O	      4.12151      9.97245      6.63259         0.020069      0.006481     -0.012896
O	      6.14279      3.99048      2.27177         0.010281     -0.001765      0.085232
O	      8.17949      5.97051      6.60999        -0.011866     -0.114156      0.062897
O	      6.14713      7.98443      2.25970        -0.007866      0.000237      0.075469
O	      8.18020      9.98016      6.61771        -0.008469      0.126717      0.061451
O	     10.12641      3.99001      2.39687        -0.012273     -0.003147      0.068177
O	     12.17411      5.98038      6.75488         0.006997      0.009594      0.067527
O	     10.12144      7.98380      2.39206        -0.011282     -0.004093      0.102757
O	     12.17473      9.97000      6.76254         0.008053     -0.013610      0.068848
