# total energy = -694.40017132 eV
 
CRYSTAL
PRIMVEC
12.259771 -0.002176 -0.006132 
0.001234 7.975476 0.014941 
4.080709 3.970313 8.713124 
PRIMCOORD
87 1
Li	      4.03106      5.97356      4.34680         0.001334      0.005543     -0.014659
Li	      6.08023      3.97158      8.71095         0.003927     -0.001813     -0.025467
Li	      4.03069      1.98723      4.33924         0.000674     -0.002251     -0.014522
Li	     10.27060      7.95889      8.69189        -0.002308      0.002230     -0.017543
Li	      8.20572      5.98259      4.38470        -0.002841      0.003898     -0.001435
Li	     10.23762      3.97090      8.69875        -0.002754      0.001785     -0.020657
Li	      8.20603      9.95260      4.39184        -0.003656     -0.007018     -0.000317
Li	      4.04256      3.98431      2.15441         0.006263      0.001497      0.022814
Li	      6.06540      5.98688      6.62451         0.004195      0.001246      0.015007
Li	      4.03311      7.97203      2.20413         0.008824     -0.000499      0.019363
Li	      6.06595      9.93973      6.63177         0.004190      0.000572      0.016585
Li	      8.22969      3.98409      2.17049        -0.008870      0.001442     -0.007587
Li	     10.22785      5.97920      6.66266        -0.003885      0.004915      0.016922
Li	      8.23727      7.97197      2.16878        -0.010447      0.001744     -0.013735
Li	     10.22853      9.94618      6.67032        -0.002489     -0.006112      0.015839
Ti	      1.93342      2.02203      2.07934        -0.134586      0.028789     -0.009783
Ti	      3.90525      3.97555      6.52532        -0.181270     -0.002006      0.075280
Ti	      1.93405      5.94744      2.08711        -0.133431     -0.030985     -0.014148
Ti	      3.92116      7.96342      6.49546        -0.184416      0.000366      0.062710
Ti	      6.11768      1.98608      2.17578        -0.028234      0.007090     -0.038986
Ti	      8.16449      3.97509      6.57035         0.046144      0.002210     -0.015952
Ti	      6.11851      5.98170      2.18397        -0.029981     -0.005772     -0.037772
Ti	      8.11061      7.96284      6.64939        -0.025563      0.000212      0.005046
Ti	     10.37677      1.99259      2.16578         0.210289     -0.006695     -0.046253
Ti	     12.33677      3.97448      6.47607         0.086812      0.002429     -0.034503
Ti	     10.37738      5.97466      2.17367         0.208655      0.001567     -0.046018
Ti	     12.35984      7.96233      6.47605         0.131489     -0.000812     -0.058968
Ti	     12.22875      2.03872      0.07186        -0.026386      0.059741      0.032417
Ti	     14.17484      3.97875      4.40791        -0.165522     -0.000762      0.028603
Ti	     12.22918      5.93689      0.07959        -0.023693     -0.063966      0.026905
Ti	     14.17812      7.96662      4.39212        -0.149067     -0.000803      0.082057
Ti	      8.09923      6.01007      8.70595        -0.085313      0.081031      0.027599
Ti	      6.12738      3.98035      4.33136        -0.030414      0.000331      0.016483
Ti	      8.09984      9.90755      8.71368        -0.085390     -0.076829      0.027643
Ti	      6.15084      7.96739      4.31324         0.008798     -0.001601      0.068119
Ti	      8.37213      1.99338      0.01928         0.215682     -0.004653     -0.065160
Ti	     10.36331      3.98003      4.43863         0.194534     -0.002307     -0.031858
Ti	      8.37246      5.98532      0.02673         0.215954      0.000770     -0.062175
Ti	     10.36034      7.96809      4.44664         0.211387     -0.004257     -0.010776
O	      2.05318      1.95815      0.02933         0.080783     -0.004862      0.007222
O	      4.12654      3.98051      4.47758         0.069368     -0.001643      0.015874
O	      2.05382      6.02004      0.03755         0.075291      0.002717      0.003677
O	      4.13150      7.96819      4.44635         0.061548     -0.001207      0.003464
O	      6.09918      1.99599      0.13490        -0.010936     -0.004964      0.045053
O	      8.12195      3.97949      4.49531        -0.052507      0.000441      0.006410
O	      6.09978      5.98023      0.14253        -0.011132      0.006751      0.044434
O	      8.12329      7.96731      4.50083        -0.065509      0.001085     -0.006204
O	     10.24482      1.98967      0.16553        -0.145519      0.000090      0.082974
O	     12.26181      3.97878      4.46075        -0.018550     -0.000952      0.069714
O	     10.24520      5.98533      0.17352        -0.146566      0.001092      0.083446
O	     12.25511      7.96667      4.46392        -0.073036     -0.002017      0.062037
O	      4.12561      1.98833      2.07433         0.065065     -0.007384      0.000163
O	      6.15772      3.97573      6.38332         0.034188      0.001891     -0.034502
O	      4.12634      5.98050      2.08218         0.064569      0.006849      0.000070
O	      6.16028      7.96379      6.34399         0.040232      0.000723     -0.052892
O	      8.13404      1.99117      2.05041        -0.062687     -0.000625     -0.024442
O	     10.17261      3.97539      6.49504        -0.066012     -0.005942     -0.008063
O	      8.13442      5.97717      2.05822        -0.060392     -0.005125     -0.025157
O	     10.14511      7.96335      6.48557        -0.039727     -0.005564     -0.010310
O	     12.26916      2.00660      2.07916        -0.053992     -0.003064     -0.070588
O	     14.28049      3.97480      6.41816         0.081944     -0.001515     -0.070777
O	     12.26969      5.96073      2.08673        -0.054714      0.002207     -0.064060
O	     14.28827      7.96299      6.40609         0.056902     -0.001361     -0.057397
O	      4.15228      3.97268      8.47756        -0.003938      0.001193     -0.096472
O	      2.09577      1.98376      4.11996        -0.013596      0.008254     -0.026532
O	      4.11053      7.96058      8.47269        -0.015392     -0.002528     -0.067517
O	      2.09625      5.97837      4.12767        -0.014558     -0.003986     -0.026983
O	      8.15506      3.97115      8.62702        -0.020268      0.003975     -0.006124
O	      6.12727      1.99091      4.26394         0.010130      0.004584     -0.010861
O	      4.12472      3.98855      0.00991        -0.020891     -0.001600     -0.033399
O	      6.12775      5.96917      4.27250         0.010981      0.005572     -0.011332
O	     12.23132      3.97100      8.61420         0.007812      0.002287      0.008969
O	     10.16341      1.98755      4.26747        -0.011929      0.009170      0.000345
O	     12.23850      7.95873      8.61322         0.009659      0.001135      0.024013
O	     10.16395      5.97268      4.27491        -0.010172     -0.008080     -0.001090
O	      2.10023      3.98438      2.33791         0.004099      0.002062      0.007309
O	      4.10347      5.97277      6.63224        -0.010262     -0.000406     -0.010660
O	      2.08441      7.97224      2.26735         0.009616      0.006927     -0.017710
O	      4.10403      9.95496      6.63992        -0.009262      0.006954     -0.011509
O	      6.13423      3.98363      2.25158         0.001823      0.000888     -0.002477
O	      8.16388      5.95547      6.61541         0.004711     -0.052693      0.011462
O	      6.13218      7.97172      2.22220         0.007856      0.006036      0.028112
O	      8.16447      9.97010      6.62339         0.003795      0.055377      0.009964
O	     10.15353      3.98371      2.42978         0.010017     -0.006331      0.055802
O	     12.16707      5.97112      6.76307         0.015674     -0.008032      0.074574
O	     10.15651      7.97160      2.44073         0.012117     -0.006837      0.057735
O	     12.16786      9.95328      6.77071         0.014732      0.008190      0.073116
