# total energy = -93.36818777 eV
 
CRYSTAL
PRIMVEC
2.044521 4.130460 2.044180 
4.177197 -4.187833 0.026891 
4.150140 -0.000138 -4.149158 
PRIMCOORD
16 1
Li	      4.13308      1.97841      2.02104        -0.004715     -0.010132     -0.012602
Li	      4.14696      0.02777      0.03288         0.005342      0.012031      0.013752
Li	      4.19843     -2.03663     -2.06300         0.015168      0.009253      0.006172
Li	      6.18726     -0.08710     -2.07666        -0.014495     -0.009802     -0.003413
Mn	     10.36064     -0.05769     -2.06803        -0.016727     -0.003970      0.019224
Mn	      6.24685     -2.12300      0.00076         0.020271      0.000850     -0.021478
Ni	      8.30908     -0.05777     -0.01726        -0.024201      0.001023      0.026670
Ni	      8.29838     -2.12319     -2.05032         0.024007      0.000522     -0.023534
O	      6.22066     -0.17449      0.09903        -0.119111     -0.041909      0.016114
O	      6.24719     -2.11942     -1.90758        -0.107189      0.094987      0.045857
O	      3.97795      2.06140     -0.02669        -0.044740     -0.096773      0.109676
O	      4.13827     -0.00407     -2.23064         0.109745     -0.095120     -0.047742
O	      8.45248     -0.05455     -2.06791         0.044355      0.096474     -0.109571
O	      4.26445     -2.23964      0.01057         0.016450     -0.042514     -0.118593
O	      6.21018      2.18140     -2.19315         0.114330      0.043604     -0.016326
O	      1.97123      0.11649      0.00035        -0.018489      0.041478      0.115794
