# total energy = -694.50028739 eV
 
CRYSTAL
PRIMVEC
12.222668 -0.001449 0.001634 
0.001724 7.999422 0.015478 
4.073788 3.982981 8.752015 
PRIMCOORD
87 1
Li	      4.01587      5.97949      4.36340         0.008014      0.009882     -0.030808
Li	      4.01498      2.00682      4.35627         0.004705     -0.005372     -0.033105
Li	     10.24378      7.98338      8.73572        -0.009676      0.002956     -0.036369
Li	      8.16100      5.99099      4.44816        -0.009038      0.000454     -0.012136
Li	      6.13195      7.99998      0.04829        -0.005708      0.000315     -0.037960
Li	      8.16180      9.99223      4.45589        -0.007713     -0.001888     -0.012326
Li	     14.28068      7.98343      8.59574         0.012215     -0.000689      0.009909
Li	      4.02868      3.99749      2.11726        -0.003440     -0.005588      0.030172
Li	      6.05790      5.98755      6.68079         0.009383      0.000690      0.021386
Li	      4.04125      7.99689      2.19437         0.004992      0.001577      0.032561
Li	      6.05884      9.98880      6.68863         0.008509      0.000357      0.021212
Li	      8.20710      3.99656      2.14599        -0.013768     -0.003260     -0.012816
Li	     10.17820      5.97628      6.62549         0.003632      0.000814      0.029984
Li	      8.20371      7.99599      2.17510        -0.022018      0.001080     -0.003251
Li	     10.17889      9.99901      6.63322         0.006047     -0.002691      0.029879
Ti	      1.98138      1.97133      2.06211        -0.075595     -0.032470      0.021999
Ti	      3.95694      3.98897      6.56775        -0.142749     -0.002523      0.108038
Ti	      1.98184      6.02630      2.06967        -0.078117      0.028061      0.025714
Ti	      3.97253      7.98880      6.52107        -0.126144     -0.002173      0.044198
Ti	      6.10531      2.00608      2.18723        -0.050176      0.031406      0.003990
Ti	      8.07359      3.98823      6.68238        -0.018244     -0.002172      0.007491
Ti	      6.10607      5.98654      2.19482        -0.048487     -0.029340      0.008210
Ti	      8.09011      7.98780      6.68009         0.000219     -0.004347     -0.001313
Ti	     10.37094      1.96897      2.24198         0.231753     -0.013894      0.041751
Ti	     12.34753      3.98770      6.57836         0.116951      0.000131     -0.032634
Ti	     10.37109      6.02341      2.24935         0.237505      0.016009      0.043583
Ti	     12.29739      7.98718      6.49041         0.106387      0.004843     -0.044074
Ti	      0.05045      1.98792      0.08040         0.060348     -0.022159      0.022967
Ti	     14.12469      3.99370      4.35295        -0.131045     -0.003196      0.027230
Ti	      0.05119      6.01547      0.08844         0.059156      0.020859      0.021107
Ti	     14.15531      7.99312      4.46002        -0.145729     -0.003339      0.011881
Ti	      3.96808      2.00127      0.02978        -0.120084      0.006619      0.022145
Ti	      6.12783      3.99223      4.30846         0.004239      0.004398     -0.000937
Ti	      3.96892      6.00020      0.03780        -0.122241     -0.005400      0.018497
Ti	      6.12779      7.99194      4.34091        -0.003649      0.001579      0.047458
Ti	     12.34257      5.95083      8.75043         0.155103     -0.039380     -0.073632
Ti	     10.32210      3.99222      4.41282         0.195225     -0.002313     -0.102224
Ti	     12.34339     10.01643      8.75803         0.152689      0.035681     -0.074638
Ti	     10.32677      7.99181      4.45697         0.208383     -0.003881     -0.105027
O	      2.02859      2.00354      0.01447         0.019282     -0.001957      0.036971
O	      4.12138      3.99320      4.50995         0.039900     -0.003655      0.034189
O	      2.02938      5.99861      0.02202         0.021669      0.000866      0.041628
O	      4.11859      7.99304      4.47959         0.050872     -0.002473      0.023540
O	      6.14319      1.99641      0.14110         0.006920     -0.003876      0.045967
O	      8.09979      3.99185      4.53928        -0.066622      0.001582      0.024018
O	      6.14400      6.00377      0.14884         0.007791      0.002877      0.048827
O	      8.10169      7.99161      4.54829        -0.070155      0.002796      0.029274
O	     10.17837      2.06172      0.24023        -0.117815     -0.007784      0.079138
O	     12.21034      3.99165      4.54574        -0.052993      0.001811      0.048429
O	     10.17918      5.93699      0.24736        -0.117903      0.003058      0.080202
O	     12.21717      7.99217      4.48342        -0.083905     -0.002145      0.105789
O	      4.11333      1.99791      2.11126         0.068476     -0.002375     -0.031180
O	      6.12113      3.98878      6.36493         0.082342      0.001196     -0.046640
O	      4.11396      5.99646      2.11926         0.070196      0.000574     -0.034820
O	      6.12089      7.98845      6.38142         0.081878      0.001343     -0.051833
O	      8.11557      1.99798      2.06589        -0.050470     -0.002614     -0.040533
O	     10.11914      3.98829      6.46169        -0.027409     -0.003000     -0.031338
O	      8.11628      5.99480      2.07378        -0.047759      0.000143     -0.042248
O	     10.12307      7.98797      6.50488        -0.025483     -0.004576     -0.029275
O	     12.24292      1.98287      2.08247        -0.146390      0.007812     -0.113288
O	     14.26832      3.98773      6.36891         0.012301      0.003350     -0.055699
O	     12.24345      6.01041      2.09059        -0.146844     -0.006324     -0.118616
O	     14.25183      7.98807      6.49647         0.009400     -0.002505     -0.035132
O	      4.05854      3.98528      8.50136        -0.007750     -0.001650     -0.156793
O	      2.07870      1.99144      4.14437         0.001368      0.011389     -0.006269
O	      4.02125      7.98478      8.52439        -0.020026      0.001454     -0.079818
O	      2.07944      5.99666      4.15239         0.001705     -0.015300     -0.008236
O	      8.20968      3.98390      8.72150        -0.019912      0.005010     -0.063598
O	      6.11388      1.98570      4.27978         0.009180     -0.000382     -0.027240
O	      8.21356      7.98379      8.72816        -0.025079      0.005037     -0.025382
O	      6.11469      5.99938      4.28779         0.008615      0.006548     -0.028573
O	     12.20452      3.98363      8.67072         0.004793      0.000986     -0.006004
O	     10.11120      1.99095      4.29139         0.015699     -0.000991      0.010671
O	     12.25034      7.98315      8.65166         0.017148     -0.000817      0.010791
O	     10.11199      5.99266      4.29930         0.015102      0.002052      0.006847
O	      2.10575      3.99746      2.35712        -0.008862      0.002799      0.064072
O	      4.09344      5.98984      6.68361         0.003314     -0.001305     -0.013421
O	      2.10751      7.99736      2.36032         0.004511     -0.000714      0.005179
O	      4.09468      9.98748      6.69118         0.002749      0.005355     -0.012493
O	      6.11415      3.99623      2.22419         0.006265      0.003431      0.025937
O	      8.12361      5.98954      6.67678        -0.007956     -0.004914      0.003261
O	      6.11769      7.99595      2.25900         0.002111      0.001547      0.031243
O	      8.12430      9.98618      6.68467        -0.006747      0.005923      0.005072
O	     10.12713      3.99542      2.42186         0.007287      0.005208      0.047658
O	     12.13411      5.99903      6.77763         0.010655     -0.003055      0.089715
O	     10.12083      7.99544      2.43332         0.005976     -0.000728      0.032191
O	     12.13488      9.97516      6.78575         0.010740      0.007361      0.089706
