# total energy = -694.29209343 eV
 
CRYSTAL
PRIMVEC
12.254481 -0.001748 -0.009386 
0.001511 7.987268 0.015107 
4.076938 3.976540 8.703480 
PRIMCOORD
87 1
Li	      6.07411      7.99479      8.67803        -0.007091      0.002573     -0.027106
Li	      4.05477      5.98295      4.38841        -0.019794     -0.002770     -0.013344
Li	      6.07478     11.94231      8.68596        -0.005520     -0.004698     -0.024754
Li	      4.06120      9.97660      4.40286        -0.014297     -0.002360     -0.004421
Li	     10.24025      7.97650      8.67268        -0.007292      0.005844     -0.016513
Li	      8.20069      5.98293      4.35671         0.006287     -0.000829     -0.016573
Li	     10.23956      3.97215      8.66537        -0.007920     -0.002245     -0.017929
Li	      8.20333      9.97644      4.38492         0.003640     -0.001266      0.013567
Li	      4.03448      3.99697      2.20173        -0.001466      0.010766      0.002217
Li	      6.07842      5.97858      6.54905         0.003677      0.001795      0.000839
Li	      4.03502      7.97784      2.20934        -0.004232     -0.005867      0.001751
Li	      8.19764      3.99173      2.20472         0.006374     -0.002412      0.044950
Li	     10.23143      5.97883      6.52778         0.014592     -0.001981      0.002782
Li	      8.19835      7.98212      2.21252         0.007991      0.002675      0.044460
Li	     10.26254      9.97217      6.52802        -0.002694      0.000456     -0.001102
Ti	      1.87195      1.99463      2.14585        -0.237978     -0.007691      0.085053
Ti	      3.96593      3.95052      6.48183        -0.149753     -0.060765      0.012807
Ti	      1.86497      5.98807      2.18153        -0.212510     -0.003180      0.051191
Ti	      3.96647      8.00681      6.48925        -0.147408      0.061578      0.019511
Ti	      6.12441      1.99370      2.20496         0.067256     -0.004104     -0.090538
Ti	      8.10196      3.94345      6.56136        -0.056354     -0.267879     -0.081377
Ti	      6.10492      5.98774      2.20953         0.015200     -0.006531     -0.185399
Ti	      8.10198      8.01424      6.56900        -0.052164      0.262577     -0.078029
Ti	     10.30868      1.99372      2.11350         0.110983     -0.005675     -0.023289
Ti	     12.38794      3.98219      6.49436         0.208977     -0.010768     -0.053830
Ti	     10.29701      5.98743      2.11567         0.082169     -0.004992     -0.023620
Ti	     12.38848      7.97687      6.50168         0.209460     -0.011466     -0.047029
Ti	     12.14367      1.99634      0.03802        -0.167333      0.003518      0.037298
Ti	     14.21563      3.97803      4.42826        -0.060112      0.005660      0.040652
Ti	     12.14210      5.98983      0.04547        -0.169591      0.004226      0.005652
Ti	     14.21634      7.98515      4.43616        -0.060283     -0.000880      0.029493
Ti	      8.16168      5.97417      8.66348        -0.039102      0.004219      0.124432
Ti	      6.11271      3.96399      4.34182        -0.045145     -0.080993      0.170029
Ti	      8.13364      9.96826      8.62314        -0.073814      0.003742     -0.016210
Ti	      6.11355      8.00118      4.34932        -0.046066      0.086794      0.164389
Ti	      8.32767      1.99772      0.04976         0.219829      0.002583     -0.028579
Ti	     10.38058      3.98803      4.39706         0.245300      0.004132     -0.086314
Ti	      8.32919      5.99136      0.06891         0.189765     -0.001160     -0.015689
Ti	     10.38160      7.97766      4.40491         0.241796     -0.002216     -0.091703
O	      2.08254      1.99815      0.10144         0.080233     -0.000176      0.022909
O	      4.11212      3.98091      4.41426         0.073109     -0.002386     -0.015093
O	      2.09316      5.99160      0.18296         0.068539      0.000813      0.062975
O	      4.11288      7.98512      4.42174         0.072086     -0.002552     -0.015261
O	      6.07385      1.99750      0.12548        -0.026376      0.002243      0.035295
O	      8.11714      3.98513      4.48616        -0.010977      0.024058      0.039163
O	      6.06526      5.99109      0.14159         0.005917      0.000172      0.033048
O	      8.11767      7.98012      4.49363        -0.011610     -0.022032      0.040271
O	     10.21959      1.99664      0.09574        -0.020745     -0.002274      0.089615
O	     12.26700      3.98661      4.48535        -0.080446     -0.004154      0.124039
O	     10.22392      5.99028      0.09767        -0.005375     -0.003246      0.095487
O	     12.26785      7.97729      4.49260        -0.079856      0.005026      0.127318
O	      4.12834      1.99411      2.03487         0.009185     -0.000047     -0.068315
O	      6.16796      4.02940      6.40747         0.115702      0.024045     -0.056865
O	      4.13038      5.98767      2.04603         0.032550     -0.000246      0.022657
O	      6.16811      7.92873      6.41472         0.117240     -0.025049     -0.057186
O	      8.12951      1.99381      2.10252        -0.077859     -0.008266      0.005215
O	     10.16440      3.98403      6.41839        -0.064613      0.001220     -0.030691
O	      8.12746      5.98740      2.12055        -0.055753     -0.005285     -0.000427
O	     10.16498      7.97349      6.42586        -0.063906     -0.007633     -0.032504
O	     12.24007      1.99300      2.06009         0.066899      0.000043     -0.099073
O	     14.29749      3.98733      6.44024        -0.060731     -0.002642     -0.084840
O	     12.24158      5.98631      2.06475         0.082185      0.001410     -0.104820
O	     14.29809      7.96843      6.44772        -0.061142      0.002734     -0.083392
O	      4.15110      3.97625      8.48591        -0.005994     -0.013913     -0.060555
O	      2.12190      1.99015      4.14003         0.010279      0.000944     -0.065750
O	      4.15192      7.97402      8.49345        -0.007197      0.011942     -0.061791
O	      2.12841      5.98365      4.15992         0.011926      0.002363     -0.094241
O	      8.14577      3.98568      8.63107         0.011189      0.123340     -0.063336
O	      6.10564      1.98922      4.26513        -0.009439      0.008308     -0.088273
O	      8.14649      7.96358      8.63830         0.011374     -0.121480     -0.064875
O	      6.10284      5.98261      4.29289         0.007360      0.007499     -0.077484
O	     12.20465      3.97677      8.61579        -0.020791      0.011878      0.011303
O	     10.18039      1.98907      4.24664        -0.012923      0.005161      0.024449
O	     12.20527      7.97126      8.62351        -0.019246      0.002039      0.009395
O	     10.17627      5.98269      4.25935        -0.014416      0.006915      0.021959
O	      2.07090      3.98712      2.29946        -0.003475      0.009992     -0.021581
O	      4.12313      5.97871      6.62678         0.023743      0.001586     -0.018257
O	      2.07147      7.98782      2.30691        -0.001384     -0.009808     -0.019784
O	      4.06560      9.97224      6.63440         0.008153     -0.000065     -0.007391
O	      6.13927      3.99278      2.23984        -0.028172      0.022683      0.074046
O	      8.18386      5.97866      6.61878        -0.028559      0.003542      0.112815
O	      6.13979      7.98143      2.24701        -0.026067     -0.016848      0.071551
O	      8.23652      9.97228      6.56973        -0.033517      0.002778      0.024129
O	     10.13073      3.98998      2.40603        -0.015159     -0.003502      0.076224
O	     12.17491      5.97804      6.75886         0.007588     -0.000410      0.096756
O	     10.13150      7.98334      2.41372        -0.015029      0.000339      0.075149
O	     12.18500      9.97169      6.76566         0.000127     -0.001470      0.088296
