# total energy = -697.80296857 eV
 
CRYSTAL
PRIMVEC
12.052007 -0.001936 -0.001435 
0.001381 8.081189 0.015440 
4.015026 4.023691 8.725265 
PRIMCOORD
88 1
Li	      5.99822      8.07375      8.62196         0.008153     -0.004851     -0.034488
Li	      5.99760      4.01927      8.61476         0.008637      0.006303     -0.035593
Li	     10.03862      8.07232      8.69362        -0.004771      0.000866     -0.024045
Li	     10.03779      4.01881      8.68463        -0.006756      0.002518     -0.023464
Li	      8.01389     10.09422      4.52731         0.000594     -0.002880      0.012105
Li	     14.08225      8.07076      8.66505         0.000197      0.003274     -0.007245
Li	     14.08145      4.01949      8.65457         0.002058      0.000816     -0.004471
Li	     12.06695     10.09372      4.54826         0.007229     -0.001011      0.031608
Li	      4.01610      4.04830      2.30154        -0.006269      0.004955      0.024667
Li	      4.01711      8.06857      2.30716        -0.004208     -0.003259      0.022964
Li	      8.02079      4.05031      2.24242         0.006039     -0.001466      0.004770
Li	     10.04645      6.05034      6.40547        -0.016567      0.000858     -0.002117
Li	      8.02121      8.06573      2.24869         0.007210      0.002481      0.004778
Li	     10.04496     10.08956      6.45897        -0.001455     -0.001950      0.000643
Li	     12.06882      4.04790      2.28836         0.004841      0.006405      0.035899
Li	     12.06969      8.06647      2.29347         0.002050     -0.006064      0.034861
Ti	      2.04873      2.01830      2.29851         0.017018     -0.001930      0.121525
Ti	      4.01287      4.03044      6.40322         0.012347     -0.010601     -0.000247
Ti	      2.02426      6.05907      2.30304         0.018187     -0.003857      0.067916
Ti	      4.01343      8.07012      6.41026         0.010038      0.010653      0.003398
Ti	      5.99955      2.01788      2.25628         0.007218     -0.006153      0.116133
Ti	      7.97028      4.07991      6.49425         0.017068      0.055110     -0.053817
Ti	      6.02469      6.05813      2.25471        -0.012125     -0.001100      0.073077
Ti	      7.96993      8.01998      6.50307         0.021830     -0.054375     -0.062848
Ti	     10.03346      2.01700      2.30502        -0.014885     -0.002666     -0.005684
Ti	     12.11486      4.08218      6.51935        -0.011974     -0.007949     -0.096847
Ti	     10.03129      6.05750      2.36836        -0.009446      0.001399     -0.033982
Ti	     12.11707      8.01623      6.52765        -0.014976      0.005330     -0.098565
Ti	      4.01076      6.04654      8.64816        -0.006485      0.005592     -0.166137
Ti	     14.08107      4.08893      4.50027        -0.008944      0.027390      0.005806
Ti	      3.99858     10.08673      8.66465        -0.020344      0.004684     -0.136774
Ti	     14.08285      8.01709      4.50576        -0.014266     -0.027780      0.010559
Ti	      7.98943      6.04621      8.60036         0.011456     -0.001904     -0.047828
Ti	      6.00093      4.09103      4.48056         0.015959      0.026055      0.046840
Ti	      7.98704     10.08696      8.59433        -0.001072     -0.001504      0.013338
Ti	      6.00032      8.01678      4.48636         0.025965     -0.022561      0.047344
Ti	     12.08996      6.04549      8.61852         0.002050     -0.000798      0.051196
Ti	     10.04134      4.11570      4.38645        -0.004083      0.084710      0.090655
Ti	     12.11055     10.08670      8.61118         0.018931     -0.007044      0.013028
Ti	     10.04226      7.99180      4.39196        -0.006624     -0.084751      0.093828
O	      2.00453      2.02254      0.21042         0.000604     -0.000341      0.016225
O	      4.01554      4.03824      4.42869        -0.005078     -0.017051      0.069164
O	      2.00761      6.06240      0.21691        -0.005316     -0.000142     -0.000674
O	      4.01638      8.07140      4.43455        -0.007439      0.011128      0.071308
O	      6.02640      2.02171      0.13666         0.001905     -0.000997      0.025674
O	      8.03695      3.98015      4.43523        -0.019833     -0.007970     -0.032341
O	      6.02392      6.06187      0.13951        -0.002504      0.001564      0.003894
O	      8.03831      8.12754      4.44434        -0.024557      0.010571     -0.035800
O	     10.04322      2.02083      0.21724         0.007670     -0.001915     -0.002291
O	     12.04584      3.97911      4.45302         0.014445     -0.007660     -0.022812
O	     10.04350      6.06141      0.22123         0.011261     -0.000401     -0.023486
O	     12.04617      8.12787      4.46193         0.017676      0.007363     -0.029246
O	      4.01731      2.01810      1.97723        -0.004886      0.005878      0.007892
O	      6.01602      4.03756      6.48072        -0.025039     -0.003346     -0.043855
O	      4.01897      6.05896      1.97127         0.004878      0.005296     -0.004468
O	      6.01718      8.06279      6.48757        -0.029183     -0.004086     -0.040818
O	      8.03898      2.01779      2.03213        -0.017384      0.002538     -0.002057
O	     10.04068      4.03725      6.48646         0.002393     -0.002241      0.044280
O	      8.03588      6.05857      1.99558        -0.013451      0.002479     -0.008829
O	     10.04147      8.06223      6.49174         0.001314     -0.003832      0.050571
O	     12.04811      2.01719      2.03334         0.014459      0.001143      0.002202
O	     14.06585      4.03410      6.50388         0.005208      0.009057     -0.030505
O	     12.04931      6.05767      2.01489         0.011649      0.006088     -0.024837
O	     14.06647      8.06349      6.51079         0.007571     -0.009606     -0.031904
O	      4.01514      4.02765      8.58520        -0.004711     -0.004243      0.001756
O	      1.94590      2.01529      4.21259         0.002226      0.001003     -0.077084
O	      4.01556      8.06585      8.59231        -0.003071      0.002154      0.002267
O	      1.99289      6.05497      4.26098        -0.005135      0.002157     -0.110982
O	      8.01021      4.01826      8.59592        -0.018100      0.010261     -0.001169
O	      6.08384      2.01407      4.17219        -0.005866     -0.001373     -0.093214
O	      8.01135      8.07399      8.60309        -0.020844     -0.010009      0.003055
O	      6.04264      6.05413      4.21443         0.007095      0.001190     -0.126479
O	     12.06649      4.01567      8.62331         0.016807      0.042025     -0.014517
O	     10.04054      2.01375      4.30616         0.010938      0.002873     -0.020197
O	     12.06733      8.07512      8.63039         0.020379     -0.034249     -0.011281
O	     10.04094      6.05346      4.39560         0.002763     -0.000973     -0.065140
O	      2.01479      4.03304      2.35601         0.003104     -0.003277     -0.018240
O	      4.01472      6.05033      6.75817        -0.000777     -0.003542      0.179524
O	      2.01517      8.08458      2.36269         0.005289     -0.002576     -0.018353
O	      4.01714     10.09062      6.77111        -0.001005     -0.005232      0.134993
O	      6.01881      4.03198      2.31237        -0.004266      0.010822     -0.010892
O	      8.09266      6.04959      6.59570        -0.011132      0.000237      0.113476
O	      6.02006      8.08383      2.32015        -0.007056     -0.008241     -0.010982
O	      8.09855     10.09040      6.60692        -0.012313      0.000428     -0.004393
O	     10.04495      4.02368      2.30749         0.003365     -0.015925      0.002824
O	     11.99333      6.04906      6.61392         0.000382      0.002907      0.093386
O	     10.04580      8.09132      2.31480         0.005821      0.015031      0.003687
O	     11.98524     10.08965      6.62522         0.009925      0.002088     -0.002122
