# total energy = -697.81156851 eV
 
CRYSTAL
PRIMVEC
12.089329 -0.002239 0.014854 
0.001210 8.046593 0.015488 
4.039121 4.006284 8.754717 
PRIMCOORD
88 1
Li	      6.03866      8.03347      8.61433         0.010420     -0.000309     -0.048257
Li	      6.03941      4.01038      8.60481         0.010044      0.000566     -0.048590
Li	     10.07799      8.03261      8.69932        -0.010013      0.001008     -0.033870
Li	     10.07659      4.00930      8.68847        -0.011068      0.002084     -0.032113
Li	     14.13494      8.03155      8.70912        -0.001513      0.002274     -0.009712
Li	     12.11268      6.02825      4.52862        -0.002656      0.000478     -0.000632
Li	     14.13317      4.00850      8.69877         0.004220      0.001596     -0.009022
Li	     12.11315     10.05060      4.53623        -0.003677     -0.000791     -0.001457
Li	      4.04795      4.02154      2.36064        -0.008842     -0.000283      0.046588
Li	      4.04924      8.04453      2.36867        -0.009487      0.000286      0.046341
Li	      8.04312      4.02114      2.28308        -0.001784      0.001474      0.003644
Li	     10.06425      6.02425      6.46232         0.002782      0.001175      0.004390
Li	      8.04486      8.04439      2.28903         0.000148     -0.000820      0.006501
Li	     10.06509     10.04840      6.47023         0.002956     -0.001938      0.005752
Li	     12.10094      4.02013      2.28975         0.010145      0.002409      0.029187
Li	     12.09978      8.04362      2.29881         0.008878      0.000646      0.029004
Ti	      2.05632      2.00983      2.29303         0.031089      0.004705      0.080330
Ti	      4.03182      4.01336      6.44250         0.000731      0.003447     -0.033959
Ti	      2.05693      6.03428      2.30050         0.030927     -0.005124      0.085265
Ti	      4.03239      8.03797      6.45057        -0.000606     -0.004489     -0.033598
Ti	      6.06376      2.00927      2.25797        -0.014145     -0.000778      0.151670
Ti	      8.01908      4.01283      6.43423        -0.076606      0.002725      0.065342
Ti	      6.06412      6.03340      2.26573        -0.010108     -0.004878      0.156101
Ti	      8.01875      8.03763      6.44546        -0.066343     -0.009370      0.050952
Ti	     10.02316      2.01002      2.35335        -0.011970     -0.002037      0.013180
Ti	     12.15409      4.01227      6.55435         0.030128     -0.000901      0.045882
Ti	     10.02361      6.03118      2.36095        -0.012757     -0.001058      0.013382
Ti	     12.15555      8.03651      6.56376         0.029333     -0.002684      0.042903
Ti	      4.02465      6.02147      8.70857         0.006498      0.003645     -0.159158
Ti	     14.15768      4.01505      4.54298         0.075801      0.008525     -0.052447
Ti	      4.02530     10.04494      8.71662         0.004159      0.004410     -0.157954
Ti	     14.15865      8.03984      4.55032         0.070712     -0.001759     -0.045516
Ti	      8.02971      6.02250      8.67684        -0.025313     -0.014027     -0.085519
Ti	      6.05392      4.01615      4.52215         0.001257      0.006656      0.038003
Ti	      8.03029     10.04379      8.68446        -0.024161      0.009896     -0.083157
Ti	      6.05540      8.04055      4.53049         0.001320     -0.002117      0.042698
Ti	     12.15427      6.02125      8.63004         0.015014      0.000261     -0.029973
Ti	     10.02335      4.01600      4.42392        -0.029360      0.006259     -0.025748
Ti	     12.15466     10.04339      8.63748         0.017693     -0.004846     -0.027607
Ti	     10.02306      8.04009      4.43441        -0.028314      0.001257     -0.026828
O	      2.01079      2.01516      0.23372         0.025086     -0.001550      0.024608
O	      4.03957      4.01728      4.47133        -0.047860     -0.000180      0.096771
O	      2.01137      6.03769      0.24100         0.024904      0.001581      0.022073
O	      4.04055      8.04081      4.47928        -0.050854      0.000317      0.094094
O	      6.05561      2.01449      0.15392        -0.018909     -0.002159      0.007835
O	      8.05109      4.01748      4.43215         0.007642     -0.006300      0.048147
O	      6.05614      6.03694      0.16071        -0.018205      0.001294      0.007409
O	      8.05174      8.03977      4.44218         0.004541     -0.000656      0.046655
O	     10.07704      2.01287      0.23251         0.002008     -0.000106      0.001564
O	     12.09631      4.01620      4.46086         0.002782     -0.002945      0.003613
O	     10.07772      6.03681      0.24013         0.000834      0.002307     -0.001246
O	     12.09676      8.03935      4.46984         0.010325      0.000628      0.002332
O	      4.03709      2.00954      1.97949        -0.017895      0.008560     -0.028712
O	      6.04693      4.01400      6.49242         0.055641     -0.005600     -0.085875
O	      4.03768      6.03473      1.98712        -0.017391      0.005364     -0.033312
O	      6.04752      8.03677      6.50161         0.050949     -0.000855     -0.085585
O	      8.06116      2.00965      1.99519         0.002279      0.005252     -0.002710
O	     10.08035      4.01334      6.51891        -0.010770     -0.007828     -0.006485
O	      8.06197      6.03319      2.00277        -0.000790      0.003892     -0.005437
O	     10.08107      8.03620      6.52836        -0.014515     -0.002264     -0.005666
O	     12.08296      2.00880      2.07474         0.008142      0.000041     -0.001786
O	     14.12525      4.01237      6.54765        -0.012953     -0.000380     -0.050240
O	     12.08341      6.03213      2.08177         0.009170      0.000084     -0.004344
O	     14.12606      8.03528      6.55583        -0.011714      0.002266     -0.051469
O	      4.04229      4.01031      8.63578        -0.010499     -0.005312     -0.017109
O	     14.03454      2.00497      4.27161        -0.010142     -0.000879     -0.043910
O	      4.04243      8.03326      8.64421        -0.008628      0.000705     -0.017932
O	     14.03501      6.02755      4.27752        -0.009369      0.005678     -0.038929
O	      8.04723      4.01016      8.59355         0.009156     -0.003988      0.014598
O	      6.03794      2.00557      4.15959         0.006658      0.005484     -0.149632
O	      8.04776      8.03285      8.60480         0.008910      0.002000      0.007142
O	      6.03848      6.02898      4.16616         0.005683      0.002553     -0.144872
O	     12.11779      4.00941      8.65269         0.009834     -0.003551     -0.009377
O	     10.14001      2.00398      4.37627        -0.015661      0.007189     -0.029377
O	     12.11897      8.03174      8.66266         0.009030      0.005589     -0.011641
O	     10.14108      6.02885      4.38345        -0.016758      0.001129     -0.033436
O	      2.03994      4.02226      2.37080        -0.006385     -0.010565     -0.011371
O	      4.04918      6.02540      6.80849        -0.005922     -0.005870      0.149502
O	      2.03992      8.04478      2.37816        -0.004645      0.000348     -0.008957
O	      4.04995     10.04866      6.81507        -0.006775     -0.003588      0.155299
O	      6.04492      4.02140      2.33005         0.012494     -0.006919      0.012832
O	      8.14205      6.02371      6.71578         0.008533      0.007130      0.030821
O	      6.04651      8.04421      2.33782         0.010715      0.003486      0.014673
O	      8.14267     10.04898      6.72187         0.007162     -0.006358      0.034106
O	     10.05952      4.02068      2.32543        -0.011748     -0.001679      0.015542
O	     12.03626      6.02423      6.60692         0.016319     -0.004138      0.034439
O	     10.05975      8.04352      2.33667        -0.011207      0.001831      0.014095
O	     12.03708     10.04798      6.61379         0.015269      0.001387      0.029262
