# total energy = -697.79895970 eV
 
CRYSTAL
PRIMVEC
12.086492 -0.002242 -0.019486 
0.001139 8.047185 0.015017 
4.013494 4.006180 8.743145 
PRIMCOORD
88 1
Li	      6.00068      8.03205      8.61554        -0.003651     -0.003071     -0.042092
Li	      5.99944      4.00860      8.60943        -0.007121     -0.000135     -0.041113
Li	     10.06071      8.03107      8.67528         0.003496      0.002120     -0.020270
Li	      8.02058      6.02691      4.48810         0.013047     -0.000517     -0.004341
Li	     10.06061      4.00781      8.66981         0.007278      0.002648     -0.021849
Li	      8.02140     10.05180      4.49399         0.016509     -0.002830     -0.003693
Li	     14.10528      8.03094      8.62981        -0.000216      0.000947     -0.018360
Li	     14.10473      4.00773      8.62326         0.000064      0.003678     -0.017487
Li	      4.00484      4.02067      2.29997         0.004909      0.000996      0.020220
Li	      4.00528      8.04340      2.30677         0.002940      0.001661      0.020425
Li	      8.04965      4.02070      2.25628        -0.000166     -0.002075      0.022370
Li	     10.08910      6.02413      6.44672        -0.011529     -0.000583      0.007380
Li	      8.04955      8.04380      2.26334         0.000291     -0.000861      0.021698
Li	     10.08922     10.04701      6.45600        -0.009793     -0.001991      0.003294
Li	     12.10998      4.01950      2.31885        -0.000016      0.001057      0.041677
Li	     12.11159      8.04210      2.32654        -0.001747      0.004309      0.039602
Ti	      2.02342      2.00889      2.28796        -0.005582      0.000271      0.155884
Ti	      4.01575      4.01190      6.41840         0.008212      0.004342      0.005595
Ti	      2.02386      6.03236      2.29486        -0.001177      0.000355      0.161969
Ti	      4.01655      8.03648      6.42575         0.010542     -0.004113      0.003278
Ti	      5.98152      2.00832      2.23063        -0.012743      0.004856      0.077361
Ti	      7.99323      4.01049      6.51754        -0.027405      0.003620     -0.009205
Ti	      5.98249      6.03193      2.23644        -0.016805     -0.002406      0.086079
Ti	      7.99434      8.03670      6.52297        -0.030655     -0.004151     -0.010745
Ti	     10.11737      2.00748      2.34104        -0.003625     -0.008827      0.032551
Ti	     12.13122      4.01077      6.43968         0.066978      0.005979     -0.004912
Ti	     10.11717      6.03279      2.34730        -0.001429      0.001367      0.036679
Ti	     12.13162      8.03610      6.44649         0.065769     -0.007756     -0.004513
Ti	      4.00048      6.02072      8.65958         0.003627     -0.001104     -0.157565
Ti	     14.09389      4.01344      4.50712        -0.013887      0.006733      0.004992
Ti	      4.00115     10.04426      8.66681         0.004863     -0.000679     -0.156555
Ti	     14.09486      8.03771      4.51457        -0.014521      0.000651      0.000815
Ti	      7.99296      6.01809      8.58560        -0.001841      0.005023     -0.023257
Ti	      5.97941      4.01481      4.48737        -0.067552      0.006981     -0.002836
Ti	      7.99280     10.04435      8.59228         0.000155      0.001549     -0.020823
Ti	      5.97922      8.03955      4.49336        -0.059182      0.001316      0.006665
Ti	     12.12796      6.01947      8.69711         0.011471     -0.001082     -0.084044
Ti	     10.11487      4.01548      4.41310         0.030888     -0.001782     -0.014694
Ti	     12.12897     10.04310      8.70308         0.009391     -0.005485     -0.076508
Ti	     10.11599      8.03946      4.41828         0.028079      0.006018     -0.013035
O	      2.00698      2.01365      0.19615         0.003402     -0.001008      0.021962
O	      4.01840      4.01636      4.44358         0.024550     -0.001663      0.047533
O	      2.00711      6.03732      0.20199         0.007439      0.000270      0.027350
O	      4.01915      8.03966      4.45042         0.018557      0.000646      0.047448
O	      6.03278      2.01300      0.14682         0.018475     -0.007642      0.037720
O	      8.04603      4.01605      4.42184        -0.021548     -0.000573     -0.009845
O	      6.03340      6.03617      0.15226         0.020804     -0.000003      0.039220
O	      8.04686      8.03938      4.42884        -0.023430     -0.001682     -0.015539
O	     10.07656      2.01274      0.22242        -0.031436     -0.000411      0.016187
O	     12.09107      4.01560      4.44135        -0.001094     -0.003296      0.022888
O	     10.07733      6.03513      0.22889        -0.033114      0.001664      0.013635
O	     12.09178      8.03789      4.44807         0.000388      0.000776      0.019373
O	      4.01958      2.00942      1.96223         0.034014      0.004622     -0.021666
O	      6.01783      4.01282      6.48633         0.002808     -0.006044     -0.017250
O	      4.01993      6.03235      1.96906         0.036952      0.003522     -0.026814
O	      6.01873      8.03562      6.49245        -0.000611     -0.002150     -0.017656
O	      8.06289      2.00885      2.03727        -0.014034      0.002792     -0.034172
O	     10.06339      4.01222      6.50531         0.014538     -0.005722      0.023156
O	      8.06434      6.03286      2.04335        -0.021364     -0.000182     -0.038117
O	     10.06408      8.03517      6.51165         0.016977      0.000773      0.022463
O	     12.08933      2.00735      1.98887         0.002899      0.005005     -0.021589
O	     14.09157      4.01123      6.48324        -0.029707     -0.007762     -0.051448
O	     12.08985      6.03088      1.99596         0.001856      0.007275     -0.028559
O	     14.09208      8.03404      6.49037        -0.027577     -0.001808     -0.048910
O	      4.01003      4.00925      8.58560         0.003924     -0.006534      0.017687
O	      2.02342      2.00495      4.19199         0.000460      0.001968     -0.133772
O	      4.01099      8.03232      8.59286         0.003403      0.003594      0.016184
O	      2.02443      6.02852      4.19781        -0.001373      0.002669     -0.127984
O	      8.01555      4.00850      8.61152        -0.018626     -0.002336      0.005439
O	      6.10507      2.00503      4.19762         0.011313     -0.005697     -0.058233
O	      8.01637      8.03073      8.61611        -0.021624      0.002910     -0.001271
O	      6.10561      6.02786      4.20213         0.014992      0.000374     -0.054390
O	     12.09331      4.00821      8.61587         0.011776     -0.007039      0.023415
O	     10.00203      2.00453      4.36234         0.014768      0.002212     -0.036197
O	     12.09352      8.03049      8.62283         0.013093      0.008644      0.024727
O	     10.00226      6.02689      4.36792         0.012559     -0.001077     -0.029068
O	      2.01321      4.02057      2.36101        -0.007592     -0.006144     -0.020778
O	      3.99932      6.02377      6.75775         0.000591      0.001369      0.127995
O	      2.01417      8.04396      2.36789        -0.008477     -0.001836     -0.018918
O	      4.00028     10.04756      6.76388        -0.002408     -0.002428      0.131750
O	      6.01674      4.02053      2.31005        -0.014288     -0.003840     -0.020236
O	      8.10714      6.02456      6.56628        -0.014072     -0.000328      0.039133
O	      6.01693      8.04288      2.31672        -0.014530      0.007429     -0.019780
O	      8.10751     10.04635      6.57153        -0.016277      0.004261      0.032146
O	     10.09322      4.01993      2.31895         0.029559      0.001167     -0.005571
O	     12.00454      6.02328      6.73227        -0.012947     -0.004322      0.047851
O	     10.09344      8.04365      2.32308         0.032102     -0.005844     -0.004460
O	     12.00541     10.04606      6.73625        -0.013933      0.006403      0.056323
