# total energy = -697.70430213 eV
 
CRYSTAL
PRIMVEC
12.162927 -0.001805 -0.044227 
0.001400 8.038421 0.015906 
4.022147 4.002905 8.712293 
PRIMCOORD
88 1
Li	      6.04932      8.02216      8.65498         0.005602      0.004579     -0.007609
Li	      6.04950      4.00435      8.64700         0.003057      0.002010     -0.009526
Li	      6.08050      4.01904      0.10865         0.000194     -0.002115      0.029190
Li	      6.07987      8.03767      0.11555         0.002696     -0.002166      0.027254
Li	     10.15201      4.01863     -0.02410        -0.003892      0.003212     -0.001427
Li	     12.11867      6.02025      4.32767         0.002577     -0.000333     -0.018565
Li	     10.15280      8.03721     -0.01552        -0.003683      0.000780     -0.002022
Li	     12.11930      2.00054      4.31671         0.001733     -0.000205     -0.016335
Li	      4.09389      4.01426      2.31904        -0.010819      0.002533      0.008978
Li	      4.09206      8.03426      2.32775        -0.005532     -0.000130      0.009107
Li	     10.08553      6.01695      6.32636        -0.001130     -0.001006     -0.019306
Li	     10.08291     10.03637      6.33018        -0.003048      0.000743     -0.018193
Li	     12.17744      4.01491      2.22680        -0.000364      0.001935      0.000041
Li	     14.17658      6.01555      6.46826        -0.003951     -0.003912      0.009224
Li	     12.18109      8.03229      2.23658        -0.004959     -0.001229      0.000947
Li	     14.18124     10.03561      6.47003        -0.003913      0.000605      0.011253
Ti	      2.09649      2.00757      2.34626         0.025763      0.005439      0.000916
Ti	      4.10715      4.00863      6.41096         0.062527      0.003821      0.003206
Ti	      2.09798      6.02299      2.35473         0.022169     -0.002000      0.003252
Ti	      4.10674      8.02683      6.41960         0.081497     -0.000855      0.005499
Ti	      6.18709      2.00465      2.25014         0.157617      0.002702      0.154143
Ti	      7.99017      4.00791      6.44510        -0.093201     -0.001605      0.049087
Ti	      6.18789      6.02392      2.26113         0.159844      0.003693      0.144241
Ti	      7.99166      8.02715      6.45551        -0.100012     -0.006580      0.037862
Ti	     10.00861      2.00435      2.17208        -0.106961      0.000016     -0.010345
Ti	     12.12510      4.00438      6.45356        -0.018164      0.009957      0.002166
Ti	     10.00540      6.02406      2.18120        -0.105800      0.001964     -0.030115
Ti	     12.12505      8.02815      6.46149        -0.020225     -0.011124      0.003365
Ti	      0.02546      2.00998      0.02933        -0.038995     -0.000117     -0.067472
Ti	      2.11101      4.01196      4.38330         0.092964      0.007585      0.008261
Ti	      0.02812      6.02942      0.03601        -0.047858      0.004119     -0.055897
Ti	      2.11319      8.03036      4.39530         0.084590     -0.005832      0.007539
Ti	      8.04415      6.01350      8.66314         0.022476     -0.007668     -0.110640
Ti	      6.05316      4.00814      4.46074        -0.020438      0.007533     -0.074814
Ti	      8.04484     10.03222      8.67037         0.028524      0.001250     -0.106997
Ti	      6.05342      8.03186      4.46864        -0.017392     -0.008892     -0.065029
Ti	      8.11802      2.00929      0.01125         0.016032      0.002050      0.064231
Ti	      9.94257      4.00946      4.21497        -0.160111      0.003584     -0.038268
Ti	      8.11776      6.02820      0.00794         0.017542      0.003616      0.088702
Ti	      9.94351      8.03148      4.22247        -0.158940     -0.003823     -0.039507
O	      2.03860      2.00923      0.21838         0.025945      0.001112      0.018399
O	      4.03778      4.01130      4.40286        -0.058680     -0.002528      0.048707
O	      2.03915      6.03017      0.22610         0.030853     -0.001378      0.014558
O	      4.03963      8.02996      4.41174        -0.059570      0.001353      0.044138
O	      6.05764      2.00896      0.15996        -0.026730     -0.001224      0.012344
O	      8.07600      4.01059      4.46414         0.147235     -0.001482      0.092734
O	      6.05904      6.02774      0.16580        -0.030625      0.004072      0.004502
O	      8.07717      8.02979      4.47424         0.144858      0.003608      0.093419
O	     10.15322      2.00873      0.06615         0.021604      0.000463     -0.010988
O	     12.13715      4.01180      4.42300         0.001797     -0.005710      0.029851
O	     10.15284      6.02793      0.07465         0.024873     -0.001303     -0.022023
O	     12.13559      8.02815      4.43206         0.004445      0.004481      0.029651
O	      4.03387      2.00571      1.99261        -0.082812      0.004000     -0.022195
O	      6.06292      4.00937      6.48732         0.049326     -0.005760     -0.041759
O	      4.03568      6.02489      1.99991        -0.084060      0.002945     -0.021675
O	      6.06464      8.02659      6.49563         0.039626     -0.001533     -0.044606
O	      8.09349      2.00420      2.02566        -0.055143     -0.002698     -0.052474
O	     10.12353      4.00695      6.31462         0.010796     -0.000900     -0.007885
O	      8.09276      6.02410      2.02627        -0.054503     -0.001790     -0.037768
O	     10.12297      8.02691      6.32381         0.017747      0.001599     -0.008827
O	     12.21399      2.00534      2.03736         0.044449     -0.003871     -0.022072
O	     14.13684      4.00555      6.41463        -0.021363     -0.002966     -0.016227
O	     12.21510      6.02394      2.04199         0.045368     -0.000774     -0.013830
O	     14.13754      8.02632      6.42447        -0.020934     -0.001804     -0.017389
O	      4.03711      4.00394      8.60104         0.002270     -0.000274      0.031591
O	     14.11464     10.03727      4.33295         0.025667      0.000584     -0.046995
O	      4.03802      8.02292      8.60971         0.001265     -0.000527      0.029841
O	     14.11337      6.02080      4.32613         0.027478      0.000128     -0.053431
O	      8.08510      4.00348      8.56619        -0.009904      0.000858      0.037715
O	      6.03600      2.00132      4.17027         0.021227      0.000006     -0.071050
O	      8.08607      8.02274      8.57580        -0.013688     -0.002008      0.030701
O	      6.03795      6.02039      4.17653         0.021093      0.001632     -0.076167
O	     12.11494      4.00601      8.51324         0.001818     -0.017309     -0.018018
O	     10.15351      2.00163      4.20742        -0.026178      0.001320     -0.021412
O	     12.11554      8.01869      8.52175         0.003057      0.007270     -0.013833
O	     10.15299      6.02034      4.21330        -0.022463     -0.000352     -0.024867
O	      2.04652      4.01538      2.30830         0.024794     -0.001570      0.050934
O	      3.96813      6.01753      6.75107        -0.003374     -0.001158      0.045192
O	      2.04754      8.03463      2.32259         0.025678      0.002407      0.044307
O	      3.97085     10.03677      6.75871        -0.012012     -0.004519      0.042413
O	      6.03951      4.01394      2.32262         0.007631      0.002049     -0.027670
O	      8.16724      6.01611      6.69050        -0.001685      0.003998      0.029693
O	      6.03989      8.03390      2.33139         0.006071     -0.001806     -0.028763
O	      8.16640     10.03669      6.69726        -0.000643     -0.002417      0.032672
O	     10.19089      4.01486      2.19588        -0.029075      0.001212      0.037368
O	     12.11783      6.01588      6.58333         0.002768      0.005610     -0.055170
O	     10.19207      8.03269      2.20303        -0.028371     -0.000275      0.041331
O	     12.11838     10.03525      6.58160         0.004056      0.003092     -0.041363
