# total energy = -697.77898020 eV
 
CRYSTAL
PRIMVEC
12.063120 -0.002178 -0.000705 
0.001215 8.070579 0.015217 
4.019066 4.018049 8.734108 
PRIMCOORD
88 1
Li	      6.00527      8.06064      8.61551         0.008599     -0.004505     -0.030559
Li	      6.00444      4.01766      8.60738         0.007351      0.004192     -0.030384
Li	     10.04672      8.05497      8.69337         0.000771      0.005268     -0.034243
Li	     10.04621      4.02125      8.68442         0.001354     -0.000495     -0.032476
Li	      7.99338     10.08136      4.53557         0.014117      0.000497     -0.001720
Li	     14.09505      8.05337      8.67254        -0.008723      0.004473     -0.009143
Li	     12.10917      6.04575      4.54824        -0.009036      0.000196      0.011423
Li	     14.09440      4.02204      8.66377        -0.007894     -0.001634     -0.008328
Li	      4.01969      4.03185      2.31829         0.001111      0.001313      0.029149
Li	      4.02044      8.07025      2.32418         0.000903      0.001769      0.028494
Li	      8.02857      4.03247      2.24898         0.000589      0.005680      0.011127
Li	     10.05326      6.04298      6.42498        -0.003311     -0.001931     -0.000632
Li	      8.02812      8.06901      2.25540         0.002292     -0.006739      0.012288
Li	     10.05900     10.07715      6.42168        -0.004772     -0.001116     -0.001056
Li	     12.08080      4.03065      2.30356         0.006020     -0.003547      0.034036
Li	     12.08236      8.06884      2.30835         0.004371      0.002696      0.035819
Ti	      2.02284      2.01653      2.29128         0.020631     -0.002535      0.084739
Ti	      4.01452      4.02165      6.41533        -0.008200     -0.001572     -0.046720
Ti	      2.05862      6.05164      2.30075         0.031896     -0.003291      0.114771
Ti	      4.01529      8.06445      6.42288        -0.009188     -0.000370     -0.047420
Ti	      6.00526      2.01552      2.24528        -0.016240     -0.001546      0.114621
Ti	      7.98521      4.07300      6.49597         0.017466      0.046165     -0.075501
Ti	      6.02810      6.05060      2.24347         0.014662     -0.001405      0.085135
Ti	      7.98567      8.01128      6.50312         0.023792     -0.042505     -0.078717
Ti	     10.06753      2.01442      2.33725        -0.011752     -0.010819     -0.014225
Ti	     12.12174      3.97708      6.52078         0.001570     -0.055619     -0.097177
Ti	     10.01408      6.05114      2.35398        -0.039149      0.002812     -0.024419
Ti	     12.12250      8.10574      6.52930        -0.001296      0.059370     -0.103354
Ti	      4.00840      6.03912      8.66050        -0.005545      0.006170     -0.148195
Ti	     14.09101      3.97196      4.51110        -0.015922     -0.047452      0.045397
Ti	      4.00412     10.07406      8.68702        -0.015746      0.006224     -0.143358
Ti	     14.09220      8.11835      4.51850        -0.019957      0.052478      0.048379
Ti	      7.99213      6.03828      8.61480        -0.014686      0.004647     -0.029589
Ti	      6.01118      4.08387      4.49694         0.017248      0.035785      0.085795
Ti	      7.99780     10.07388      8.59417         0.005414      0.001511     -0.027949
Ti	      6.01117      8.00824      4.50403         0.025778     -0.031586      0.086860
Ti	     12.11535      6.03788      8.61628         0.012486      0.004115     -0.014610
Ti	     10.04949      4.03241      4.39642        -0.006476      0.007391      0.133139
Ti	     12.11719     10.07319      8.63501         0.013430     -0.001268     -0.006000
Ti	     10.05074      8.06067      4.40192        -0.007598     -0.010009      0.136236
O	      2.00843      2.02093      0.20566         0.003340     -0.005076      0.022710
O	      4.02008      4.02759      4.44490         0.001147      0.001871      0.071392
O	      2.00762      6.05578      0.22122        -0.000500     -0.001183      0.014698
O	      4.02094      8.06687      4.45209        -0.000620     -0.006661      0.070008
O	      6.03303      2.01973      0.14479        -0.004481     -0.003774      0.020115
O	      8.03692      3.98203      4.43299        -0.037225     -0.003994     -0.029180
O	      6.02914      6.05510      0.14411        -0.005306     -0.002712      0.035240
O	      8.03820      8.11068      4.44102        -0.043235      0.006622     -0.032132
O	     10.05038      2.01943      0.21756         0.011193     -0.003344      0.005150
O	     12.06353      4.07829      4.45286         0.033824      0.007861     -0.032177
O	     10.05202      6.05387      0.22921         0.021441     -0.002264      0.001217
O	     12.06411      8.01356      4.46031         0.035651     -0.008499     -0.035307
O	      4.01811      2.01654      1.97736         0.004032      0.003780     -0.019285
O	      6.02114      4.03599      6.48726        -0.036254     -0.003758     -0.032303
O	      4.02468      6.05127      1.97100        -0.005557      0.008427     -0.008837
O	      6.02217      8.04981      6.49443        -0.040126     -0.004534     -0.027021
O	      8.04782      2.01537      2.02288        -0.006429      0.008469     -0.002447
O	     10.05099      4.02332      6.49932        -0.004359     -0.000739      0.045595
O	      8.04122      6.05142      2.00879        -0.018885      0.005092     -0.015836
O	     10.05167      8.06098      6.50579        -0.004879     -0.007077      0.052049
O	     12.06232      2.01499      2.01039         0.010276      0.006607     -0.031197
O	     14.07906      4.01351      6.51170         0.022666     -0.003319     -0.027750
O	     12.05792      6.05053      2.04808         0.016332      0.000728     -0.006029
O	     14.07954      8.06963      6.51889         0.026416     -0.004267     -0.023332
O	      4.01796      4.02143      8.59857         0.001151      0.000929     -0.006073
O	      1.99893      2.01273      4.24411        -0.008550     -0.001631     -0.101723
O	      4.01867      8.05766      8.60586         0.000281     -0.004140     -0.006227
O	      1.96096      6.04809      4.22202        -0.008572      0.002516     -0.113233
O	      8.01930      4.01403      8.60185        -0.025745      0.000504      0.006936
O	      6.08100      2.01135      4.16745         0.011296     -0.000343     -0.137313
O	      8.02014      8.06318      8.60852        -0.028227     -0.003231      0.010218
O	      6.03751      6.04682      4.19466         0.007050     -0.002779     -0.160254
O	     12.07760      4.02709      8.62994         0.021718      0.006284      0.012411
O	      9.99588      2.01200      4.35084         0.005298     -0.000198     -0.062358
O	     12.07782      8.04887      8.63771         0.021612     -0.005421      0.014688
O	     10.10282      6.04569      4.37080         0.001726      0.001787     -0.045744
O	      2.02038      4.03954      2.36030        -0.002066     -0.017907     -0.012702
O	      4.01036      6.04291      6.76843         0.002555     -0.001826      0.157356
O	      2.02091      8.06341      2.36785         0.001794      0.012596     -0.011498
O	      4.02667     10.07821      6.79049         0.005739     -0.004328      0.140694
O	      6.02208      4.03040      2.31721        -0.003452      0.015420     -0.003056
O	      8.11130      6.04213      6.60681        -0.016870     -0.000776      0.075354
O	      6.02293      8.07075      2.32490        -0.008492     -0.013978     -0.002922
O	      8.10002     10.07754      6.60431        -0.016896      0.000860      0.040352
O	     10.05357      4.03186      2.31238         0.011946     -0.021098     -0.001111
O	     12.00282      6.04137      6.62549         0.004707      0.000221      0.028229
O	     10.05410      8.06863      2.31780         0.014525      0.024386     -0.003682
O	     11.99460     10.07690      6.62830         0.002650      0.001088      0.074683
