# total energy = -701.32558490 eV
 
CRYSTAL
PRIMVEC
12.186149 -0.002080 -0.004200 
0.001263 8.052327 0.014877 
4.057676 4.008784 8.650813 
PRIMCOORD
89 1
Li	      6.15872      8.03613      8.65735        -0.010264     -0.000137     -0.013639
Li	      4.08449      6.05187      4.31610         0.013778      0.002576     -0.016673
Li	      2.05842      8.05432      0.01943         0.004278      0.004418     -0.010074
Li	      4.08526     10.03800      4.32402         0.013739     -0.004192     -0.019302
Li	     10.12141      8.03579      8.59272        -0.003765      0.003765     -0.026445
Li	     10.09472      4.02622      0.02437        -0.005186     -0.003164      0.009780
Li	     12.18188      6.03566      4.33732        -0.011736      0.002806     -0.043155
Li	     10.12986      8.05206      0.03383        -0.009580     -0.002792     -0.008557
Li	     12.18238     10.05092      4.34565        -0.012086     -0.005004     -0.041249
Li	      4.11284      4.02316      2.18120         0.011306      0.001287      0.018533
Li	      6.13645      6.03261      6.46170         0.009738      0.001731     -0.010387
Li	      6.13673     10.04905      6.46963         0.009301     -0.003721     -0.009516
Li	      8.10294      4.02267      2.21794        -0.003530     -0.000691      0.027068
Li	     12.14436      4.02200      2.17625        -0.008023     -0.000640      0.005520
Li	     14.20614      6.02860      6.45823         0.001972     -0.002951     -0.021688
Li	     12.15092      8.04750      2.21140        -0.001516      0.000410      0.027614
Li	     14.20727     10.04973      6.46557        -0.000253     -0.001949     -0.022040
Ti	      2.08585      1.97244      2.17077         0.087872     -0.106220     -0.134985
Ti	      4.06237      4.01450      6.54900         0.041609      0.005151     -0.125233
Ti	      2.08673      6.07478      2.17687         0.088215      0.106502     -0.128957
Ti	      4.05392      8.04078      6.57093         0.024676     -0.003060     -0.142741
Ti	      6.09776      1.91913      2.17842        -0.048917     -0.093994      0.089190
Ti	      8.20415      4.01433      6.38389         0.144767      0.004688      0.014110
Ti	      6.09778      6.12654      2.18596        -0.050632      0.091425      0.093357
Ti	      8.20166      8.04119      6.45429         0.085119     -0.005726     -0.046682
Ti	     10.05167      1.96442      2.16643        -0.167692     -0.048319      0.162746
Ti	     12.03314      4.01319      6.46225        -0.172747      0.001499     -0.052676
Ti	     10.05214      6.07994      2.17405        -0.168893      0.031711      0.160475
Ti	     12.08045      8.03953      6.45839        -0.128365     -0.009175     -0.002876
Ti	      4.08971      6.02534      8.64974         0.116019      0.025121      0.106436
Ti	      2.03326      4.01907      4.27307        -0.017508      0.001296      0.138929
Ti	      4.09087     10.04809      8.65743         0.112068     -0.024221      0.105553
Ti	      2.07805      8.04519      4.23803         0.026914      0.004074      0.086206
Ti	      4.10626      1.93638      0.11760         0.017678     -0.083267      0.000960
Ti	      6.19470      4.01810      4.33333         0.163157      0.008572     -0.053656
Ti	      4.10588      6.11834      0.12578         0.020636      0.084688      0.000139
Ti	      6.22928      8.04457      4.33960         0.176375      0.000265     -0.026104
Ti	     12.03874      5.95994      8.60794        -0.178279      0.000531     -0.034435
Ti	     10.08217      4.01687      4.40655        -0.121276      0.003615     -0.018496
Ti	     12.03876     10.10992      8.61390        -0.175382     -0.001874     -0.035791
Ti	     10.07421      8.04329      4.47213        -0.142645     -0.000127     -0.049487
O	      2.01348      2.01385      0.06753        -0.060493     -0.002599     -0.001916
O	      4.03730      4.01829      4.44521        -0.010667      0.000235      0.030085
O	      2.01429      6.04204      0.07352        -0.057131     -0.006956     -0.000174
O	      4.03364      8.04438      4.52514        -0.034502      0.002386      0.033907
O	      6.08938      2.04596      0.11963         0.119974     -0.006560      0.051263
O	      8.12528      4.01802      4.35579        -0.021572     -0.007932      0.080927
O	      6.08994      6.00812      0.12665         0.124932     -0.001797      0.051458
O	      8.12571      8.04385      4.45521        -0.041889      0.000687      0.114165
O	     10.17159      2.00977      0.11619        -0.011513     -0.010688      0.059579
O	     12.21948      4.01731      4.39132         0.059716     -0.004381     -0.029115
O	     10.17170      6.04243      0.12347        -0.009547      0.005843      0.060303
O	     12.24006      8.04292      4.40586         0.041735     -0.000008     -0.031532
O	      4.07191      2.05296      2.18178        -0.014315     -0.001315      0.004841
O	      6.04860      4.01508      6.40280        -0.077110     -0.007772      0.017164
O	      4.07290      5.99398      2.18973        -0.016531     -0.001595      0.000681
O	      6.05151      8.04107      6.42750        -0.044836     -0.005410      0.020756
O	      8.13169      2.05810      1.99080         0.137162     -0.005300     -0.113432
O	     10.14318      4.01420      6.40663         0.071310     -0.002694     -0.060460
O	      8.13211      5.98722      1.99588         0.141526      0.009343     -0.110126
O	     10.15479      8.04020      6.48796         0.018684      0.000174     -0.016176
O	     12.17056      2.00930      2.06185        -0.047307      0.004158     -0.040916
O	     14.25479      4.01332      6.37151         0.029596     -0.000808     -0.005497
O	     12.17070      6.03463      2.06896        -0.048265     -0.002520     -0.041939
O	     14.24792      8.03934      6.39995         0.033866     -0.001585      0.022032
O	      4.05898      4.01061      8.61599        -0.000460      0.001802     -0.049487
O	      2.03087      2.01471      4.26911         0.008804      0.049938     -0.031234
O	      4.06063      8.03685      8.64894         0.012205      0.003497     -0.071951
O	      2.03163      6.02316      4.27565         0.009181     -0.049675     -0.025856
O	      8.06420      4.01056      8.50537        -0.019334     -0.001004      0.016498
O	      6.05576      2.00756      4.27107        -0.010951     -0.003582      0.010851
O	      8.12450      8.03661      8.60285        -0.016071      0.001744      0.011072
O	      6.05666      6.02929      4.27798        -0.012342      0.004738      0.012763
O	     12.23912      4.00945      8.49192        -0.026937     -0.004677     -0.039451
O	     10.23011      1.99758      4.13616         0.044178      0.008306     -0.068549
O	     12.17689      8.03522      8.52195        -0.010615      0.001026      0.003251
O	     10.23032      6.03764      4.14237         0.047633     -0.004402     -0.055939
O	      2.03674      4.02372      2.21462        -0.013207      0.003240      0.055708
O	      4.05697      6.02773      6.56617        -0.025072     -0.008663      0.054046
O	      1.98960      8.04969      2.17490         0.000152      0.001591      0.053059
O	      4.05737     10.05350      6.57366        -0.024677      0.017479      0.053284
O	      6.09330      4.02264      2.27836        -0.017245      0.000909     -0.009066
O	      8.07107      6.02495      6.71417        -0.001246      0.014130      0.023860
O	      6.07785      8.04858      2.31134        -0.002346      0.003072      0.027445
O	      8.07174     10.05580      6.72074        -0.000957     -0.015413      0.029678
O	     10.13303      4.02143      2.26777         0.027452      0.004896     -0.021495
O	     12.24735      6.02835      6.55812        -0.007151     -0.016880     -0.012992
O	     10.17430      8.04770      2.28718         0.030995      0.006752     -0.013133
O	     12.24771     10.04992      6.56346        -0.005758      0.043365     -0.000014
