# total energy = -701.11480509 eV
 
CRYSTAL
PRIMVEC
12.244440 -0.001999 -0.006458 
0.001304 8.029872 0.013908 
4.075492 3.996647 8.641488 
PRIMCOORD
89 1
Li	      2.07520      4.01483      0.02140        -0.021906     -0.001676      0.008506
Li	      4.10647      6.01453      4.32164        -0.010731      0.001049      0.003890
Li	      2.07606      8.03226      0.02841        -0.022827      0.003962      0.007796
Li	      4.14453      1.99914      4.31889        -0.016419      0.000899      0.003320
Li	      8.18616      1.99898      4.25270        -0.004537      0.002534     -0.048023
Li	     10.16038      4.01818      0.00440         0.009760     -0.000450     -0.029754
Li	     12.21441      6.01298      4.31330         0.008248     -0.001646     -0.049474
Li	     10.16105      8.02642      0.01210         0.011323     -0.003016     -0.028446
Li	     12.16846     10.02791      4.34297         0.013338     -0.000006     -0.028765
Li	      4.11102      4.01407      2.12272        -0.002374     -0.001436      0.007655
Li	      6.14866      6.01022      6.50016        -0.017724     -0.002543      0.038090
Li	      4.11184      8.02473      2.13051        -0.002202     -0.000893      0.007452
Li	      6.14517     10.02464      6.51953        -0.004316      0.000312      0.023651
Li	     12.19782      4.01665      2.17359         0.024864      0.001774      0.007206
Li	     14.23644      6.00822      6.50801         0.023294      0.001889      0.008923
Li	     12.19824      8.01926      2.18116         0.022154      0.000665      0.006500
Li	     14.23675     10.02351      6.50894         0.019820      0.001070      0.000388
Ti	      2.03692      2.00421      2.22372        -0.015731     -0.000104     -0.085780
Ti	      4.06062      4.00539      6.53368        -0.029887      0.017989     -0.029176
Ti	      2.04857      6.01960      2.21490        -0.013664     -0.000806     -0.098234
Ti	      4.06080      8.01457      6.54021        -0.027562     -0.013533     -0.024153
Ti	      6.21020      2.00482      2.09737         0.087661     -0.004688     -0.021397
Ti	      8.29655      4.02545      6.49643         0.181567      0.007651      0.055261
Ti	      6.21895      6.01943      2.08892         0.128843      0.002297     -0.026258
Ti	      8.29778      7.99439      6.50433         0.183861     -0.007164      0.052070
Ti	     10.08148      2.00464      2.09159        -0.085727     -0.008303      0.004407
Ti	     12.11132      4.00882      6.43137        -0.151928      0.001261      0.041605
Ti	     10.03390      6.01930      2.11012        -0.164231     -0.007251      0.006994
Ti	     12.11265      8.01067      6.43781        -0.155494     -0.017328      0.042034
Ti	      4.08214      6.00600      8.60885         0.010505     -0.005840      0.055084
Ti	      2.02733      4.00021      4.29750         0.005458     -0.040771      0.072290
Ti	      4.07939     10.02100      8.62269         0.001350     -0.004580      0.048029
Ti	      2.02790      8.02927      4.30483         0.001418      0.041218      0.067400
Ti	      4.23813      2.00781      0.01591         0.155393      0.006467     -0.034319
Ti	      6.24208      4.04552      4.36529         0.136619      0.039744     -0.036970
Ti	      8.31708     10.01963      8.64430         0.174796      0.013044     -0.026170
Ti	      6.24314      7.98225      4.37234         0.134368     -0.014798     -0.044281
Ti	      8.07766      2.00736      0.08864        -0.120132      0.004467     -0.034794
Ti	     10.14239      4.04464      4.40416        -0.067892      0.035438      0.009606
Ti	      8.06699      6.02209      0.06555        -0.134844      0.004112     -0.020917
Ti	     10.14371      7.98250      4.41106        -0.070429     -0.030346      0.010148
O	      2.00162      2.00837      0.12476        -0.013088      0.004117     -0.014265
O	      4.05814      4.00387      4.45333        -0.020072     -0.004623      0.001505
O	      2.00126      6.02339      0.11748        -0.006705      0.001809      0.005004
O	      4.05895      8.02394      4.46004        -0.021576      0.004234      0.005033
O	      6.12726      2.00800      0.10458        -0.067712     -0.005421      0.072959
O	      8.15855      3.96860      4.45557        -0.094947     -0.027199      0.044257
O	      6.12920      6.02313      0.08618        -0.064141     -0.007687      0.081888
O	      8.15933      8.05954      4.46378        -0.094077      0.010728      0.043374
O	     10.24482      2.00704      0.05079         0.002670     -0.000034      0.027495
O	     12.26250      4.00405      4.35628         0.022091     -0.003502      0.019348
O	     10.24455      6.02206      0.06941        -0.000128      0.000164      0.019314
O	     12.26297      8.02176      4.36241         0.023213      0.002228      0.021148
O	      4.04224      2.00448      2.08943        -0.004908     -0.004367      0.012524
O	      6.06898      4.00708      6.41304         0.000341     -0.005031     -0.038474
O	      4.04243      6.01963      2.08565        -0.029637     -0.002711      0.009605
O	      6.06961      8.01345      6.41979        -0.000477     -0.006247     -0.037838
O	      8.14847      2.00399      2.11777         0.032202      0.002508     -0.019338
O	     10.19766      4.01653      6.42201        -0.001884     -0.004177     -0.065098
O	      8.14009      6.01862      2.07885         0.069413      0.001355     -0.059255
O	     10.19843      8.00241      6.42912        -0.001980      0.006874     -0.066397
O	     12.27491      2.00334      2.05354         0.002289      0.003080      0.022253
O	     14.32272      4.00251      6.38457         0.019361     -0.000873     -0.006677
O	     12.29125      6.01816      2.04723         0.014416      0.003726      0.020308
O	     14.32310      8.01498      6.39218         0.021929     -0.003667     -0.008249
O	      4.06824      3.99692      8.60511        -0.000429      0.003049      0.001404
O	      2.02691      1.99968      4.29532         0.007447      0.000454     -0.002364
O	      4.06892      8.01484      8.61177        -0.001214      0.005255      0.000443
O	      2.02953      6.01459      4.28381         0.006014      0.002132     -0.017174
O	      8.10902      3.99597      8.57676         0.012447      0.003883      0.031889
O	      6.14413      1.99951      4.24109         0.010694      0.003403      0.019038
O	      8.10945      8.01374      8.58429         0.013632     -0.004854      0.027608
O	      6.08705      6.01456      4.24720         0.019339      0.002119      0.010025
O	     12.31280      3.99966      8.44003        -0.010733     -0.001238     -0.028134
O	     10.20501      1.99901      4.13159        -0.004569     -0.002554      0.004299
O	     12.31323      8.00923      8.44705        -0.009013      0.009122     -0.026643
O	     10.27205      6.01384      4.12657        -0.025461      0.002476     -0.015613
O	      2.05177      4.01322      2.21881        -0.003056      0.017306      0.011730
O	      4.08029      6.01009      6.53524        -0.005771      0.002545     -0.004713
O	      2.05236      8.02571      2.22557        -0.002692     -0.006879      0.011469
O	      4.08393     10.02510      6.55044        -0.003272     -0.000295     -0.010681
O	      6.04097      4.01402      2.38709        -0.012297     -0.007146      0.053678
O	      8.07684      6.00958      6.65882         0.054573     -0.004565     -0.007644
O	      6.04200      8.02482      2.39462        -0.011743     -0.014594      0.049703
O	      8.08801     10.02472      6.62248         0.039905     -0.005688     -0.014818
O	     10.23198      4.01291      2.24462        -0.016245      0.005659     -0.029554
O	     12.28413      6.00888      6.56209        -0.010592      0.001383     -0.026091
O	     10.23244      8.02386      2.25173        -0.016247     -0.000658     -0.029308
O	     12.27946     10.02375      6.55963        -0.011394      0.003739     -0.020369
