# total energy = -701.33309635 eV
 
CRYSTAL
PRIMVEC
12.195474 -0.002027 -0.030890 
0.001252 8.058563 0.015065 
4.042001 4.012027 8.662009 
PRIMCOORD
89 1
Li	      6.06521      8.03284      8.66347        -0.003761     -0.000557      0.004947
Li	      4.06582      6.03711      4.30331        -0.005932      0.002461     -0.010031
Li	      6.06460      4.02329      8.65588         0.000896     -0.003694      0.003072
Li	      4.10002      2.00729      4.29249        -0.015498      0.002896     -0.009696
Li	      8.10672      2.00687      4.31208         0.006585     -0.001003      0.010901
Li	     14.16550      8.02001      8.62365         0.009003      0.003141     -0.019072
Li	     12.16709      6.03482      4.30281         0.004958     -0.001189     -0.006743
Li	     14.16481      4.03301      8.61623         0.006652      0.000073     -0.020508
Li	     12.13219      2.00642      4.30789         0.001255     -0.003893      0.001211
Li	      4.07361      4.02334      2.19494        -0.004057      0.001507      0.016127
Li	      6.13247      6.03250      6.50215        -0.016350      0.000561      0.004919
Li	      4.07426      8.05837      2.20260        -0.003642      0.001000      0.015040
Li	      6.13904     10.06146      6.51389        -0.009162      0.000977      0.013740
Li	     10.18579     10.06085      6.53319        -0.005703      0.000348     -0.010206
Li	     12.18367      4.02191      2.12775         0.006768     -0.001850      0.003975
Li	     12.18438      8.05748      2.13554         0.005336     -0.001439      0.003823
Li	     14.15621     10.05970      6.54340         0.011699      0.002234      0.000391
Ti	      2.01875      2.01194      2.20004         0.018891     -0.004650      0.045252
Ti	      3.97504      4.05737      6.46582        -0.083359      0.024815     -0.014328
Ti	      2.03554      6.04104      2.19983         0.019868      0.001544      0.058589
Ti	      3.97535      8.00747      6.47379        -0.083573     -0.023754     -0.017410
Ti	      6.15739      2.01148      2.08071         0.105201     -0.001872     -0.070347
Ti	      8.26588      4.08629      6.61037         0.145679      0.039420      0.002174
Ti	      6.17174      6.04006      2.05098         0.123156      0.006721     -0.046141
Ti	      8.26653      7.97748      6.61849         0.146303     -0.044112     -0.006511
Ti	     10.04106      2.01018      2.14612        -0.156302      0.001889     -0.007092
Ti	     12.21276      4.09605      6.41153         0.058093      0.109673      0.052720
Ti	     10.00489      6.04006      2.14167        -0.190101     -0.000745      0.012098
Ti	     12.21293      7.96644      6.41892         0.055497     -0.109426      0.052436
Ti	     16.18598      6.02611      8.53665        -0.064900      0.001771     -0.036162
Ti	     14.22221      4.04037      4.38301         0.022443      0.011937     -0.025902
Ti	      4.02209     10.05796      8.62027        -0.024517      0.002105     -0.000683
Ti	     14.22225      8.02779      4.39039         0.020465     -0.007653     -0.025590
Ti	      4.20849      2.01539      0.04455         0.207973      0.000260      0.005915
Ti	      6.12517      4.06578      4.37831         0.005204      0.035336     -0.051549
Ti	      4.17690      6.04548      0.04252         0.168658     -0.002658     -0.002202
Ti	      6.12657      8.00808      4.38467         0.007933     -0.040153     -0.048268
Ti	      8.04041      2.01516      0.08298        -0.138334      0.000067      0.050467
Ti	     10.05938      4.08823      4.23700        -0.066072      0.049202     -0.038423
Ti	      8.05490      6.04513      0.04386        -0.115953     -0.001655      0.088844
Ti	     10.06053      7.98359      4.24438        -0.067466     -0.052670     -0.032538
O	      1.98169      2.01567      0.13526        -0.028256      0.001337      0.017721
O	      4.07469      4.02216      4.38411         0.012359     -0.005770      0.041228
O	      1.99900      6.04517      0.11831        -0.032050     -0.001311      0.029184
O	      4.07549      8.05106      4.39262         0.011282     -0.004535      0.038810
O	      6.10291      2.01559      0.07337        -0.069966     -0.003350      0.095034
O	      8.12261      3.97296      4.55153         0.050320      0.004051      0.029000
O	      6.10095      6.04450      0.02616        -0.036493     -0.003204      0.072703
O	      8.12337      8.09841      4.55969         0.043745     -0.005077      0.024899
O	     10.19650      2.01411      0.11572         0.102665      0.000135      0.054653
O	     12.14242      4.03153      4.34708        -0.011440      0.000706      0.042522
O	     10.18752      6.04369      0.05309         0.065284     -0.004935      0.017078
O	     12.14290      8.03856      4.35392        -0.011908     -0.003739      0.047798
O	      4.02392      2.01202      2.12963        -0.053697     -0.003653     -0.018882
O	      6.12580      4.02014      6.40774         0.008042      0.000636     -0.036811
O	      4.02652      6.04136      2.12388        -0.062745     -0.006000     -0.036201
O	      6.12655      8.04561      6.41410         0.003617     -0.003452     -0.035354
O	      8.12193      2.01148      2.11275         0.056746     -0.001751     -0.065196
O	     10.14300      3.96484      6.29171        -0.142301      0.013099     -0.027293
O	      8.11612      6.04043      2.05135         0.087517     -0.001950     -0.087437
O	     10.14337      8.09928      6.29954        -0.139604     -0.009092     -0.024163
O	     12.21030      2.01033      2.02576         0.033717      0.003313     -0.015543
O	     14.20416      3.96791      6.46125         0.007712      0.010315     -0.033396
O	     12.21522      6.03970      2.01078         0.039195     -0.000083     -0.026671
O	     14.20496      8.09420      6.46852         0.010076     -0.004834     -0.029609
O	      4.03777      4.00191      8.58344        -0.010046      0.010184     -0.013629
O	     14.20204      2.00529      4.27985        -0.004189      0.004408      0.001194
O	      4.03852      8.05475      8.59064        -0.008725     -0.004739     -0.014141
O	      2.01287      6.03666      4.27671        -0.005683      0.005601     -0.047039
O	      8.05027      4.00633      8.63846         0.019273      0.024342     -0.051783
O	      6.09516      2.00738      4.23578         0.011931     -0.000353      0.020724
O	      8.05063      8.04892      8.64572         0.019605     -0.023346     -0.052869
O	      6.04893      6.03663      4.22796         0.002865      0.003132      0.011385
O	     12.20954      4.02150      8.43784         0.000390      0.005088     -0.081738
O	     10.14932      2.00673      4.18621        -0.026687     -0.004011     -0.056563
O	     12.21041      8.03332      8.44484         0.001862     -0.019244     -0.081800
O	     10.20085      6.03581      4.17354        -0.033806     -0.001209     -0.059924
O	      2.02483      4.02439      2.24884        -0.006123      0.010057     -0.015749
O	      4.10977      6.03253      6.49775        -0.001160      0.000152      0.049737
O	      2.02505      8.05793      2.25652        -0.001874     -0.003431     -0.017921
O	      4.06481     10.06175      6.55472        -0.000518      0.001969      0.016498
O	      6.04319      4.03184      2.37165         0.004462      0.007351      0.104371
O	      8.07318      6.03185      6.66719         0.044262     -0.000367      0.068287
O	      6.04390      8.04931      2.37880         0.003192     -0.011664      0.107689
O	      8.12892     10.06086      6.66795         0.006016      0.004865      0.036505
O	     10.19514      4.01957      2.19672        -0.021898      0.029742      0.033033
O	     12.19432      6.03107      6.56853        -0.009664      0.004143     -0.007384
O	     10.19539      8.05978      2.20373        -0.020410     -0.018837      0.034583
O	     12.18154     10.06020      6.56770        -0.010722      0.008347     -0.004778
