# total energy = -92.46352282 eV
 
CRYSTAL
PRIMVEC
-0.000009 4.058502 0.000001 
4.226583 0.000040 4.280030 
4.116069 -0.000005 -4.168649 
PRIMCOORD
16 1
Li	      4.29558      0.00111      0.17296         0.014779     -0.000365      0.042107
Li	      6.12849      2.03037     -0.03599        -0.015047      0.000223     -0.042560
Li	      6.28952      0.00117     -1.95571         0.014103     -0.000938      0.002809
Li	      4.13465      2.03048      2.09260        -0.013027     -0.000184     -0.001181
Mn	      8.26848      0.00117      0.05762        -0.093990     -0.000657     -0.097550
Mn	      2.15568      2.03041      0.07914         0.092132     -0.000130      0.097875
Ni	      6.24168      0.00120      2.14189        -0.041409     -0.000539     -0.015808
Ni	      4.18256      2.03039     -2.00513         0.037269      0.000263      0.015105
O	      4.04581      2.03038      0.04366         0.011545      0.000763      0.092026
O	      6.37836      0.00113      0.09314        -0.013162      0.001088     -0.092546
O	      2.14667      2.03038     -1.90479        -0.073838     -0.000194      0.044917
O	      4.05074      0.00114     -2.23842         0.076735      0.000334     -0.044405
O	      2.06090      2.03041      1.97267         0.114308      0.000996     -0.076010
O	      4.24711      0.00121      2.33277        -0.112520      0.000117      0.075457
O	      0.13296      2.03042      0.04018         0.055241     -0.000690     -0.081830
O	      1.94853      0.00116     -0.01475        -0.053117     -0.000086      0.081594
