# total energy = -704.47719647 eV
 
CRYSTAL
PRIMVEC
12.219169 -0.001036 0.000591 
0.001958 8.061772 0.012208 
4.072386 4.011181 8.618749 
PRIMCOORD
90 1
Li	      6.07801      8.04828      8.60652         0.020599     -0.002472     -0.040631
Li	      4.05155      6.03884      4.36495         0.011639     -0.005692     -0.019271
Li	      6.07278      4.00816      8.61134         0.030879      0.003194     -0.059146
Li	      4.00627     10.06684      4.39036         0.006342      0.000960     -0.003278
Li	      6.14429      4.02760      0.01876        -0.017753     -0.001033      0.007339
Li	      8.16819      6.04372      4.31872        -0.014695      0.002781     -0.013691
Li	      6.14380      0.00584      0.00379        -0.021158      0.004183      0.001869
Li	      8.20919     10.06056      4.32697        -0.009834     -0.001365     -0.004479
Li	     12.24391     10.05151      4.32144        -0.002974      0.003333     -0.029032
Li	      4.01106      4.03505      2.16608         0.017185      0.003275      0.005228
Li	      6.07390      6.02924      6.47562         0.025992     -0.002347     -0.002423
Li	      4.05226      8.05286      2.17595         0.015568     -0.001822      0.008175
Li	      6.07559     10.06763      6.47254         0.023550      0.003453      0.000161
Li	      8.21559      4.02868      2.09951        -0.015270     -0.002573      0.006576
Li	     10.21664      6.03691      6.48956        -0.022562     -0.008064      0.056242
Li	      8.17013      8.05788      2.12470        -0.016368     -0.000755      0.019981
Li	     10.21390     10.05947      6.50605        -0.017990      0.004053      0.036281
Li	     12.19648      4.04406      2.17123         0.004663     -0.006113      0.033396
Ti	      1.94856      1.97590      2.09066        -0.046760     -0.057911     -0.011938
Ti	      3.93685      4.02403      6.46875        -0.144272      0.001066      0.027730
Ti	      1.90848      6.08734      2.10692        -0.099620      0.037792      0.004243
Ti	      3.93929      8.04185      6.49328        -0.163373     -0.011691      0.040688
Ti	      6.11580      2.02161      2.21249        -0.052818      0.018887     -0.106381
Ti	      8.13420      4.02061      6.51459        -0.016019      0.006388     -0.080567
Ti	      6.12927      6.03396      2.19690        -0.036462     -0.024726     -0.058533
Ti	      8.13544      8.04470      6.51710        -0.005799     -0.008019     -0.033848
Ti	     10.24166      1.97252      2.07661         0.064935     -0.029930     -0.018171
Ti	     12.32283      4.04328      6.45511         0.105241      0.014147      0.013923
Ti	     10.24381      6.08126      2.06201         0.078638      0.035797      0.005094
Ti	     12.33800      8.02367      6.49136         0.129691     -0.031291      0.019974
Ti	     12.11691      1.98940      0.02523        -0.109095     -0.007173     -0.004880
Ti	     14.20003      4.06031      4.40401        -0.100394      0.033878      0.026809
Ti	     16.17422     10.08296      8.61937        -0.121272      0.025319     -0.012333
Ti	     14.19883      8.01444      4.43054        -0.115902     -0.040545      0.007893
Ti	      8.15497      6.02519      8.58441         0.035949     -0.009868      0.088961
Ti	      6.10253      4.01191      4.26746         0.054022     -0.005920      0.092696
Ti	      8.15729     10.06224      8.59419         0.016106      0.010032      0.045049
Ti	      6.09156      8.06282      4.29610         0.040343      0.010902      0.046565
Ti	      8.28253      2.01026      0.01133         0.144794     -0.002602     -0.041354
Ti	     10.26947      4.05868      4.38769         0.060243      0.054137      0.035838
Ti	     12.35408     10.06474      8.61859         0.152525      0.017638     -0.044933
Ti	     10.31112      8.00838      4.38412         0.116087     -0.029868      0.016280
O	      2.07506      2.01098      0.04418        -0.021536      0.004371     -0.006144
O	      4.09877      4.02114      4.37505        -0.031456     -0.012086     -0.003641
O	      2.07721      6.05310      0.06502        -0.009539     -0.006788     -0.003506
O	      4.09705      8.05407      4.39028        -0.000040      0.006239      0.005618
O	      6.07613      2.01499      0.10782         0.016436      0.002535     -0.028877
O	      8.12680      4.01895      4.42510         0.035612     -0.008563     -0.061068
O	      6.07732      6.04921      0.09600        -0.005008     -0.005456     -0.004428
O	      8.12115      8.05413      4.44718         0.006817      0.004280     -0.033026
O	     10.18233      2.00149      0.07372        -0.055341     -0.004626      0.084236
O	     12.22314      3.98441      4.38139        -0.030677     -0.023251     -0.024718
O	     10.18296      6.06176      0.05330        -0.023372     -0.006402      0.063466
O	     12.22825      8.08607      4.44070        -0.063678      0.010542      0.016432
O	      4.09255      2.01529      2.05623        -0.040415      0.006623      0.058575
O	      6.14207      4.01895      6.37193        -0.017440     -0.001654      0.037531
O	      4.09971      6.04221      2.04600        -0.004602     -0.001997      0.029721
O	      6.14368      8.04707      6.39627        -0.002512      0.001452      0.014093
O	      8.12039      2.01319      2.10287         0.035881      0.001523      0.005614
O	     10.14296      4.02311      6.43488         0.022737     -0.008025     -0.004056
O	      8.12430      6.04206      2.10169        -0.003734     -0.013192     -0.010579
O	     10.14312      8.04341      6.42765         0.014768     -0.003323     -0.009211
O	     12.21459      2.04895      2.10082         0.038082      0.020340      0.014500
O	     14.25590      4.03194      6.40758         0.054909     -0.002723     -0.076357
O	     12.21093      6.00960      2.05261         0.073355     -0.014686     -0.014911
O	     14.25649      8.03291      6.44042         0.026992      0.009621     -0.078619
O	      4.14446      4.01361      8.48365        -0.008765     -0.013388     -0.015608
O	      2.03812      2.00455      4.12546         0.017271      0.002949      0.005485
O	      4.13731      8.04116      8.54180         0.000603      0.016993      0.002766
O	      2.10378      6.04041      4.11658        -0.001468      0.012556     -0.010292
O	      8.13886      4.01128      8.58872         0.004090      0.001044      0.023115
O	      6.09988      2.00308      4.28327         0.005534     -0.008890      0.035702
O	      8.13720      8.04511      8.59011        -0.002249      0.001550      0.018080
O	      6.10120      6.04056      4.26804         0.006443      0.013659     -0.025778
O	     12.17335      4.01107      8.56312         0.002692      0.002509      0.022390
O	     10.20617      2.00327      4.23733        -0.000404      0.004703      0.016737
O	     12.17749      8.04464      8.58120         0.005026      0.005023      0.004517
O	     10.15160      6.03721      4.24351        -0.002054     -0.000161      0.002434
O	      2.01252      4.03103      2.24189        -0.001891     -0.002006     -0.024112
O	      4.11767      6.03448      6.53560        -0.002433      0.000840     -0.028805
O	      2.06904      8.05892      2.24810        -0.003814      0.008666     -0.004032
O	      4.11531     10.06205      6.52960        -0.006702      0.004981     -0.012552
O	      6.11983      4.03114      2.19595        -0.006873      0.012629     -0.021441
O	      8.15243      6.03390      6.51019        -0.010577      0.005574     -0.027521
O	      6.12034      8.05541      2.22427        -0.011365     -0.008129      0.022548
O	      8.15603     10.06231      6.52182        -0.005200      0.004328     -0.021552
O	     10.18062      4.02993      2.35521        -0.011633     -0.007563     -0.008949
O	     12.14620      6.03192      6.61664         0.008246      0.012733      0.007400
O	     10.11699      8.05586      2.37550         0.005185     -0.013579      0.012352
O	     12.15566     10.06581      6.57048        -0.000502     -0.011210     -0.005630
