# total energy = -704.46256859 eV
 
CRYSTAL
PRIMVEC
12.216976 -0.002170 -0.013906 
0.001188 8.072772 0.014353 
4.061057 4.018466 8.628486 
PRIMCOORD
90 1
Li	      6.07407      8.05517      8.60029        -0.011771      0.001663     -0.028153
Li	      4.03334      6.04995      4.35735         0.007260     -0.000054     -0.015502
Li	      6.03894      4.02055      8.60540        -0.013629      0.003131     -0.023783
Li	      4.03361     10.07984      4.36466         0.006220     -0.002824     -0.016153
Li	     10.19241      8.05647      8.59611         0.008375     -0.003248     -0.007351
Li	      8.15975      6.03920      4.34393        -0.004346      0.001834     -0.012113
Li	     10.23056      4.01810      8.60690         0.001729      0.007469     -0.009096
Li	      8.16109     10.08916      4.35023        -0.008491     -0.000789     -0.013041
Li	     14.23438      4.01842      8.54340         0.004358     -0.004243      0.004849
Li	      4.04658      4.03288      2.20408        -0.007502     -0.005380      0.008792
Li	      6.07888      6.04948      6.45576         0.010809     -0.004094      0.010822
Li	      4.00901      8.06987      2.19315         0.002352      0.005961      0.011418
Li	      6.07964     10.07204      6.46342         0.007580      0.003226      0.009726
Li	      8.16537      4.03308      2.19772         0.010737      0.003376      0.023038
Li	     10.20490      6.03875      6.44385        -0.008549     -0.003461      0.019424
Li	      8.20080      8.06839      2.19196         0.012919     -0.001737      0.020502
Li	     10.20547     10.08158      6.45118        -0.006022     -0.003623      0.018551
Li	     12.22278      8.06953      2.24151        -0.004280     -0.008908     -0.007626
Ti	      1.96155      2.06281      2.10789        -0.109787      0.060220      0.001232
Ti	      3.95268      4.02551      6.45344        -0.061440     -0.017854      0.021882
Ti	      1.96598      6.00553      2.11263        -0.132563     -0.064628     -0.001513
Ti	      3.90635      8.06080      6.47342        -0.100388      0.003711     -0.030430
Ti	      6.09581      2.01142      2.17146        -0.030254     -0.015477     -0.156384
Ti	      8.14079      4.02302      6.53084        -0.028216      0.002529     -0.182778
Ti	      6.09386      6.05418      2.17806        -0.016364      0.022005     -0.143960
Ti	      8.14099      8.06064      6.52875        -0.045765     -0.001322     -0.192888
Ti	     10.27391      2.07365      2.18534         0.100354      0.058552     -0.047524
Ti	     12.28675      4.02396      6.39943         0.051194     -0.005528      0.011566
Ti	     10.27594      5.99177      2.19561         0.124407     -0.062589     -0.052995
Ti	     12.28835      8.05837      6.35909         0.084618      0.001072      0.065809
Ti	     16.18435      6.09480      8.59263        -0.076786      0.061533      0.058224
Ti	     14.16770      4.02806      4.42515        -0.092210     -0.002879     -0.062989
Ti	     16.18874     10.01303      8.60018        -0.096960     -0.054066      0.052764
Ti	     14.16930      8.06200      4.38466        -0.051182      0.010148     -0.009390
Ti	      8.14134      6.03383      8.62072         0.023176     -0.016043      0.159033
Ti	      6.09858      4.02877      4.26969         0.042866     -0.004825      0.187474
Ti	      8.14114     10.07733      8.62941         0.011782      0.013032      0.149552
Ti	      6.09873      8.06469      4.26738         0.026565      0.001865      0.182911
Ti	      8.21699      2.06494      0.05359         0.115608      0.066468     -0.005628
Ti	     10.33265      4.02633      4.32657         0.104513      0.011676      0.029919
Ti	      8.21721      6.00730      0.05844         0.127223     -0.059325     -0.011186
Ti	     10.28700      8.06427      4.34604         0.056915      0.009077     -0.020083
O	      2.03553      2.02233      0.03210         0.000838     -0.021631      0.014671
O	      4.10637      4.02837      4.38003        -0.026226      0.000477      0.008758
O	      2.03456      6.05301      0.03619         0.008525      0.012735      0.020103
O	      4.10317      8.06490      4.39135        -0.029574     -0.006366     -0.001305
O	      6.10268      2.01956      0.07005         0.013705     -0.022625      0.037655
O	      8.10298      4.02785      4.43251         0.015115      0.000935     -0.043023
O	      6.10441      6.05408      0.07812         0.014401      0.011593      0.028923
O	      8.11015      8.06413      4.41909         0.026622     -0.001776     -0.007169
O	     10.17740      1.97829      0.12121        -0.058139     -0.064577      0.067345
O	     12.22471      4.02745      4.40186        -0.074985     -0.003925      0.136605
O	     10.17807      6.09355      0.13172        -0.059608      0.055522      0.081512
O	     12.21872      8.06311      4.33912        -0.038240     -0.000268      0.104340
O	      4.07565      2.01605      2.09383        -0.005751     -0.015587     -0.029303
O	      6.12918      4.02437      6.37888        -0.034127     -0.000373      0.012018
O	      4.07653      6.05058      2.10326        -0.011886      0.020858     -0.020048
O	      6.13637      8.06081      6.36524        -0.021821      0.000043      0.048330
O	      8.14186      2.01728      2.12839        -0.004587     -0.016238     -0.042096
O	     10.13665      4.02395      6.40796         0.035615     -0.006991      0.008778
O	      8.14257      6.04797      2.13244        -0.002407      0.017461     -0.038145
O	     10.13332      8.06017      6.41927         0.037537     -0.001748     -0.005995
O	     12.21679      1.97497      2.02911         0.042578     -0.058853     -0.059945
O	     14.23744      4.02334      6.44525         0.041158      0.000614     -0.105708
O	     12.21699      6.08974      2.03734         0.036229      0.067446     -0.073537
O	     14.23140      8.05943      6.38231         0.076720     -0.005909     -0.138680
O	      4.05615      4.01975      8.52114         0.016994      0.011957      0.001200
O	      2.09235      2.01735      4.11167        -0.007249     -0.016708     -0.043929
O	      4.11723      8.05658      8.50676        -0.002776     -0.003319     -0.075391
O	      2.09300      6.04030      4.12053        -0.006339      0.015782     -0.052128
O	      8.12381      4.01933      8.61179         0.024662     -0.001943     -0.028418
O	      6.09758      2.00978      4.26858         0.005544      0.014406     -0.043237
O	      8.12709      8.05590      8.60704         0.025032      0.003611     -0.045336
O	      6.09869      6.04684      4.27616         0.004697     -0.014625     -0.046556
O	     12.22118      4.01913      8.55730        -0.040676      0.007470     -0.014959
O	     10.13628      2.00688      4.26646        -0.003648      0.007654     -0.001619
O	     12.16788      8.05517      8.55854        -0.022922      0.003589     -0.036295
O	     10.13625      6.04833      4.27360        -0.005788     -0.018880     -0.006921
O	      2.07231      4.03340      2.23788         0.021749      0.007971      0.033327
O	      4.10192      6.04009      6.52438        -0.002885      0.023603     -0.001161
O	      2.01884      8.06970      2.23942         0.040724     -0.001807      0.012681
O	      4.10175     10.08195      6.53253        -0.000588     -0.008737     -0.005210
O	      6.11163      4.03259      2.19166        -0.026469      0.001728      0.049142
O	      8.14150      6.04164      6.52250        -0.002988      0.021945      0.047484
O	      6.11497      8.06917      2.18751        -0.028963      0.003170      0.036160
O	      8.14245     10.07867      6.52936        -0.002241     -0.011142      0.046818
O	     10.12273      4.03244      2.29316         0.003304     -0.007632      0.076957
O	     12.14568      6.04852      6.67847         0.003612     -0.017592      0.051030
O	     10.18373      8.06854      2.27897        -0.013702      0.002530     -0.000153
O	     12.14657     10.07160      6.68671         0.004169      0.010502      0.045508
