# total energy = -704.44837411 eV
 
CRYSTAL
PRIMVEC
12.211480 -0.002536 -0.011928 
0.000960 8.071470 0.014231 
4.060554 4.017612 8.623944 
PRIMCOORD
90 1
Li	      6.07765      8.05464      8.60019         0.000777      0.000616     -0.041907
Li	      4.03272      6.05220      4.35851        -0.001908     -0.003070     -0.011761
Li	      1.96660      8.07291      0.01669         0.006098      0.002254     -0.040477
Li	      4.03361     10.07502      4.36515        -0.008110      0.001167     -0.012395
Li	     10.19143      8.05490      8.60096        -0.015379     -0.000556     -0.000739
Li	      8.15497      6.04881      4.34022        -0.007433     -0.002478     -0.007765
Li	     10.23218      4.01723      8.59364        -0.016909      0.006304     -0.007198
Li	      8.15506     10.07632      4.34686        -0.005020      0.002148     -0.008756
Li	     14.23180      4.01785      8.56693         0.004294      0.000032     -0.027988
Li	      4.00219      4.03288      2.19496         0.022147      0.001082      0.011826
Li	      6.07901      6.04582      6.45624         0.004617     -0.005205      0.007119
Li	      4.04354      8.06721      2.20176         0.018915      0.002100      0.005990
Li	      6.07901     10.07267      6.46308         0.001560      0.004205      0.008748
Li	      8.20888      4.03130      2.15916        -0.006320     -0.000619      0.026552
Li	     10.19763      6.04646      6.43745        -0.002111     -0.005486      0.025301
Li	      8.15736      8.06724      2.19856        -0.006807      0.001636      0.027673
Li	     10.19862     10.07014      6.44412         0.000533      0.000735      0.024361
Li	     12.21544      4.02980      2.21214        -0.002348      0.007142      0.027153
Ti	      1.96302      1.98068      2.10478        -0.110709     -0.049211     -0.031218
Ti	      3.95372      4.02456      6.44342        -0.051489     -0.013624     -0.000993
Ti	      1.96259      6.08600      2.11242        -0.123100      0.039312     -0.033916
Ti	      3.90608      8.06042      6.48622        -0.117096     -0.005227     -0.006210
Ti	      6.09005      2.02684      2.17120        -0.029125      0.027073     -0.151620
Ti	      8.13003      4.02206      6.53922        -0.052670      0.003613     -0.204185
Ti	      6.09120      6.03684      2.17912        -0.034171     -0.021026     -0.144818
Ti	      8.14606      8.05897      6.52088        -0.038049     -0.003887     -0.178337
Ti	     10.27123      1.99558      2.19028         0.119261     -0.006635     -0.052144
Ti	     12.27555      4.02235      6.36745         0.053917     -0.004809      0.027554
Ti	     10.27016      6.06552      2.19546         0.140184      0.009791     -0.053120
Ti	     12.29300      8.05791      6.38672         0.083340     -0.004105      0.058677
Ti	     16.18768      6.05123      8.59186        -0.064349      0.008373      0.038239
Ti	     14.16899      4.02600      4.40640        -0.047823      0.003717     -0.005239
Ti	     16.18968     10.05469      8.60133        -0.084596     -0.006506      0.043742
Ti	     14.15038      8.06181      4.39929        -0.083727      0.003963     -0.035035
Ti	      8.13532      6.02354      8.62040         0.015467     -0.043952      0.143520
Ti	      6.10429      4.02718      4.24880         0.046716      0.008218      0.197614
Ti	      8.13511     10.08476      8.62516         0.018761      0.036080      0.155017
Ti	      6.08967      8.06386      4.28133         0.030008     -0.009510      0.160457
Ti	      8.21668      2.05304      0.04675         0.119209      0.052140      0.013105
Ti	     10.28051      4.02581      4.34550         0.045187      0.016435      0.018400
Ti	      8.21874      6.01763      0.05341         0.125467     -0.040704      0.015817
Ti	     10.32794      8.06208      4.31775         0.102168     -0.003334      0.024242
O	      2.03524      2.01224      0.02458        -0.001088     -0.007905      0.012165
O	      4.10519      4.02761      4.37391        -0.039402     -0.002244     -0.015985
O	      2.03678      6.06207      0.03139        -0.001732      0.002042      0.015717
O	      4.10373      8.06346      4.40093        -0.011841      0.000225     -0.005717
O	      6.10113      2.01379      0.07364         0.014952     -0.015848      0.033510
O	      8.10795      4.02702      4.42221         0.031965     -0.001563     -0.053634
O	      6.10043      6.05802      0.08243         0.017169      0.004502      0.022740
O	      8.09753      8.06223      4.42942         0.008113      0.004799     -0.018557
O	     10.17112      1.96382      0.12191        -0.057697     -0.041102      0.078926
O	     12.20946      4.02633      4.35345        -0.025321     -0.005520      0.077187
O	     10.17156      6.10646      0.12742        -0.061059      0.027512      0.080136
O	     12.21924      8.06193      4.38402        -0.035958     -0.003071      0.104409
O	      4.07685      2.01922      2.09653        -0.008816      0.011242     -0.001266
O	      6.12488      4.02354      6.36450        -0.035729     -0.003047      0.056206
O	      4.07876      6.04609      2.10192        -0.016685     -0.010342     -0.000297
O	      6.13654      8.05956      6.37128        -0.012733      0.000302      0.020235
O	      8.13532      2.02067      2.12363         0.007254      0.003522     -0.061550
O	     10.12928      4.02290      6.41584         0.056767     -0.006877      0.014025
O	      8.13470      6.04242      2.13074         0.009670     -0.002141     -0.063638
O	     10.13207      8.05845      6.40439         0.024488     -0.005180      0.007541
O	     12.21089      2.06626      2.03690         0.017280      0.040222     -0.037687
O	     14.23566      4.02179      6.42139         0.020601      0.001743     -0.096266
O	     12.21125      5.99581      2.04618         0.025669     -0.032648     -0.038816
O	     14.22629      8.05745      6.40301         0.034538      0.000207     -0.130426
O	      4.05916      4.01930      8.48839        -0.002539      0.007915     -0.021015
O	      2.09066      2.01048      4.11115        -0.003603     -0.006481     -0.035350
O	      4.11696      8.05597      8.54065        -0.006441     -0.003511     -0.036882
O	      2.09183      6.04596      4.11831        -0.002755      0.005807     -0.035896
O	      8.12397      4.01894      8.61867         0.017562      0.000095     -0.021780
O	      6.09687      2.00590      4.26432         0.002623     -0.020079     -0.015528
O	      8.12265      8.05371      8.59815         0.011904      0.002373     -0.064702
O	      6.09700      6.04898      4.27198         0.002851      0.019713     -0.024248
O	     12.21390      4.01776      8.54529        -0.014459      0.004703     -0.035145
O	     10.12947      2.00649      4.26489        -0.009705     -0.008196      0.018877
O	     12.16506      8.05379      8.56303        -0.003311      0.004755     -0.048306
O	     10.12968      6.04590      4.27118        -0.008539      0.005006      0.020869
O	      2.02195      4.03259      2.23690         0.013293      0.004235      0.016799
O	      4.10088      6.04408      6.52227         0.002160      0.010906     -0.029101
O	      2.07222      8.06841      2.23397         0.002392      0.001055      0.033495
O	      4.10140     10.07573      6.53027         0.003425      0.003570     -0.035093
O	      6.10834      4.03166      2.17033        -0.025078      0.002395      0.042097
O	      8.13904      6.04418      6.52271         0.001881      0.037269      0.030970
O	      6.11060      8.06768      2.20609        -0.016251     -0.000689      0.069593
O	      8.13998     10.07280      6.52853         0.002171     -0.022027      0.021856
O	     10.17589      4.03138      2.30240         0.013247     -0.016353      0.027951
O	     12.14066      6.04026      6.67500        -0.005057      0.004189      0.033959
O	     10.11902      8.06586      2.26321         0.019059      0.004584      0.050580
O	     12.14048     10.07598      6.68228        -0.004609     -0.008254      0.031753
