# total energy = -708.04180546 eV
 
CRYSTAL
PRIMVEC
12.199850 -0.001910 -0.027330 
0.001351 8.083273 0.015984 
4.046178 4.025514 8.614630 
PRIMCOORD
91 1
Li	      6.10801      8.06854      8.57356        -0.009585      0.002476     -0.003580
Li	      4.05740      6.05695      4.35345         0.003728      0.003685     -0.018613
Li	      6.11172      4.02698      8.55666        -0.007365      0.001757     -0.004107
Li	      4.05797     10.09588      4.36119         0.004177     -0.002753     -0.018258
Li	      6.08601      4.04259     -0.00239         0.012342     -0.001996     -0.008396
Li	      6.08788      8.08431      0.01920         0.004779     -0.002410     -0.006113
Li	     14.16404      8.06741      8.57646         0.009366      0.001407     -0.018460
Li	     12.15579      6.05548      4.31398         0.010355     -0.005307     -0.031326
Li	     10.10446      0.00009     -0.02021         0.011180      0.000933     -0.010173
Li	     12.15652     10.09469      4.32189         0.009366      0.000134     -0.031860
Li	      4.13521      4.03851      2.20912        -0.014048      0.002231      0.026118
Li	      6.11055      6.05809      6.43660        -0.003575     -0.002702      0.020639
Li	      4.08630      8.08030      2.22922        -0.014841      0.001482      0.014222
Li	      6.11143     10.08745      6.44487        -0.002666     -0.001291      0.019774
Li	      8.15686      4.03832      2.18806        -0.016889      0.000579      0.016200
Li	     12.13569      4.03721      2.19848         0.016487      0.001734      0.002645
Li	     14.22256      6.05162      6.39552        -0.009109     -0.000438      0.010901
Li	     12.17498      8.07880      2.21693         0.007332      0.001951     -0.003995
Li	     14.22310     10.09122      6.40359        -0.009497     -0.001066      0.010479
Ti	      1.99748      2.02365      2.12931        -0.027587      0.002581      0.016922
Ti	      4.04930      4.03126      6.52720         0.002177     -0.000972     -0.045094
Ti	      1.99850      6.05404      2.13762        -0.029230      0.001873      0.015539
Ti	      4.06324      8.07305      6.52631         0.013772     -0.001001     -0.049441
Ti	      6.23308      1.95998      2.28154         0.059053     -0.066557     -0.018081
Ti	      8.18756      4.03060      6.34326         0.069769      0.002787     -0.012440
Ti	      6.23388      6.11657      2.28987         0.057251      0.068343     -0.020008
Ti	      8.18970      8.07218      6.37486         0.083524      0.002720     -0.040667
Ti	     10.15027      1.97675      2.08791        -0.009689     -0.042186      0.074104
Ti	     12.08415      4.03000      6.40460        -0.062848     -0.001356     -0.017731
Ti	     10.15123      6.09919      2.09669        -0.011517      0.042256      0.073377
Ti	     12.07754      8.07180      6.41436        -0.077304     -0.003413     -0.025789
Ti	     12.21502      2.01335      0.01872         0.033908     -0.008747     -0.012063
Ti	      2.01851      4.03548      4.25220         0.004661     -0.002250      0.047843
Ti	     12.21587      6.06976      0.02614         0.033933      0.008307     -0.006694
Ti	      2.01383      8.07721      4.27210        -0.007525     -0.003459      0.025148
Ti	      4.05087      2.01862      0.06585         0.008672     -0.003536     -0.053326
Ti	      6.18923      4.03472      4.33912         0.039469      0.002185      0.029224
Ti	      4.05182      6.06642      0.07374         0.006810      0.005251     -0.048923
Ti	      6.22408      8.07629      4.30983         0.104779      0.002970     -0.008419
Ti	     12.11487      6.02435      8.48499        -0.024215     -0.024740      0.031565
Ti	     10.08687      4.03294      4.39216        -0.082575      0.000809      0.011601
Ti	     12.11573     10.11208      8.49319        -0.024358      0.019410      0.032730
Ti	     10.07081      8.07503      4.41010        -0.119532      0.000799     -0.003996
O	      2.04051      2.01984      0.02746         0.005077      0.007219      0.030038
O	      4.03498      4.03474      4.41272         0.000071      0.002662     -0.027332
O	      2.04112      6.06651      0.03567         0.006175     -0.006666      0.028566
O	      4.03495      8.07648      4.42127        -0.007836      0.001137     -0.017070
O	      6.10358      2.01982      0.18882         0.016658      0.012911      0.002814
O	      8.12355      4.03422      4.33947         0.001370     -0.003919      0.060912
O	      6.10434      6.06472      0.19683         0.019856     -0.004575      0.001235
O	      8.12449      8.07583      4.38596        -0.022565     -0.004649      0.104980
O	     10.11520      2.01571      0.01321        -0.009811     -0.002040      0.020935
O	     12.21695      4.03356      4.32430         0.000331     -0.001529     -0.002734
O	     10.11618      6.06814      0.02145        -0.009693     -0.005512      0.018829
O	     12.21900      8.07530      4.33607         0.028780     -0.002325      0.007754
O	      4.11087      2.01672      2.10775        -0.006821     -0.001769     -0.022845
O	      6.05643      4.03091      6.41939        -0.007996     -0.005255     -0.005072
O	      4.11150      6.06123      2.11567        -0.004687     -0.007032     -0.020279
O	      6.05720      8.07291      6.41900        -0.010062     -0.005626      0.013967
O	      8.12739      2.07458      1.94625        -0.056359      0.001216     -0.013652
O	     10.15021      4.03057      6.40445         0.028077      0.001495     -0.058262
O	      8.12828      6.00257      1.95424        -0.057045     -0.009377     -0.017073
O	     10.14466      8.07223      6.42854         0.013075      0.000708     -0.051454
O	     12.18231      2.01891      2.12217        -0.003433      0.003785     -0.024380
O	     14.23519      4.02976      6.33779        -0.004185     -0.000996      0.028827
O	     12.18321      6.05540      2.13009        -0.005421     -0.007314     -0.027373
O	     14.24192      8.07168      6.34542         0.004797     -0.002997      0.013934
O	     12.19032      8.08341     -0.00281         0.013276     -0.003955     -0.018463
O	      2.02830      2.01315      4.25441        -0.003367      0.007971      0.004117
O	     16.23249      8.06704      8.58850         0.012325      0.000957     -0.017866
O	      2.02904      6.05737      4.26247        -0.002282      0.000020      0.004893
O	      8.11192      4.02689      8.53570         0.000722      0.003433      0.034061
O	      6.04986      2.02626      4.29907         0.037358      0.007959     -0.031649
O	      8.11261      8.06850      8.55271        -0.001556      0.002369      0.033863
O	      6.05070      6.04297      4.30711         0.037332     -0.004259     -0.028999
O	     12.15494      4.02659      8.45907        -0.009578      0.001005     -0.043300
O	     10.18983      2.01020      4.09423         0.010950     -0.001914     -0.042627
O	     12.15881      8.06813      8.47875        -0.013563      0.002177     -0.016128
O	     10.19062      6.05779      4.10219         0.009915      0.001671     -0.041699
O	      2.03798      4.03879      2.15948        -0.016921      0.001485      0.008137
O	      4.04684      6.05491      6.52912        -0.006922      0.005435     -0.008881
O	      2.03825      8.08049      2.18037        -0.009288      0.003992      0.017190
O	      4.04742     10.09064      6.53696        -0.005350      0.003008     -0.010525
O	      6.11805      4.03819      2.29760         0.036973     -0.000355      0.019482
O	      8.07793      6.04799      6.67117        -0.001113     -0.007915      0.054989
O	      6.06994      8.07991      2.25173         0.037979      0.002041      0.018087
O	      8.07862     10.09645      6.67925        -0.000754      0.002529      0.054585
O	     10.16035      4.03742      2.22222        -0.012481      0.004793     -0.041221
O	     12.22573      6.05713      6.44259        -0.032140     -0.011850      0.040210
O	     10.20900      8.07907      2.22462        -0.008940      0.006547     -0.032942
O	     12.22641     10.08689      6.45074        -0.033861      0.010825      0.037941
