# total energy = -707.95182364 eV
 
CRYSTAL
PRIMVEC
12.162304 -0.001433 0.003118 
0.001719 8.116884 0.015191 
4.055141 4.041654 8.617013 
PRIMCOORD
91 1
Li	      6.13413      8.10293      8.60641        -0.010005     -0.015051     -0.013629
Li	      4.06646      6.08521      4.33562         0.000928     -0.000184     -0.008146
Li	      6.09376      4.04085      8.58579         0.003661      0.014642     -0.016744
Li	      4.06418     10.13455      4.36598         0.010534     -0.001062      0.010985
Li	      6.07643      4.04012      0.02690         0.002541      0.010288      0.013596
Li	     10.08022      4.05073      0.09951         0.005361      0.005625      0.013787
Li	     12.15382      6.07565      4.36242         0.005501      0.002925     -0.009010
Li	     10.11441      8.12841      0.12193        -0.009370     -0.008850      0.023740
Li	     12.15491     10.14228      4.37288        -0.009294     -0.004859      0.000237
Li	      4.12037      4.03730      2.19388        -0.009974      0.002690      0.014419
Li	      6.10660      6.07839      6.43826        -0.001168     -0.004651      0.008047
Li	      4.08789      8.13136      2.20475        -0.007251     -0.005454      0.020789
Li	      6.15450     10.13269      6.43775        -0.015767      0.001758      0.006707
Li	      8.09798      4.05916      2.15807        -0.002709     -0.005284     -0.008340
Li	     10.09412     10.14619      6.45778         0.012691     -0.002934      0.001152
Li	     12.10844      4.06284      2.15305         0.015744      0.000500     -0.000964
Li	     14.20374      6.06935      6.42481        -0.023849      0.001131     -0.019882
Li	     12.14812      8.10372      2.17070         0.010276      0.002242     -0.000471
Li	     14.15878     10.13786      6.45354         0.010749      0.000332     -0.004953
Ti	      2.01809      2.02826      2.17205         0.006830     -0.004531     -0.113582
Ti	      4.06401      4.03767      6.50700         0.020459     -0.045816     -0.075898
Ti	      2.04855      6.08276      2.15603         0.008059      0.010150     -0.090081
Ti	      4.06667      8.11358      6.52413         0.007668      0.045353     -0.073919
Ti	      6.18277      1.95377      2.27954         0.061641     -0.053008     -0.006945
Ti	      8.16213      4.07762      6.34600         0.057666      0.032514     -0.021681
Ti	      6.12412      6.15470      2.18018         0.029648      0.070318      0.065434
Ti	      8.16041      8.07646      6.39306         0.077975     -0.040689     -0.039077
Ti	     10.04967      1.97466      2.26039        -0.059614      0.001653     -0.014042
Ti	     12.06228      4.08228      6.48632        -0.108867      0.070580      0.041247
Ti	     10.05265      6.13043      2.23154        -0.076459      0.023589     -0.010073
Ti	     12.09109      8.06512      6.48163        -0.063444     -0.084831      0.003550
Ti	      4.05926      6.07644      8.60087         0.058904      0.014400      0.070463
Ti	      2.02131      4.05297      4.24570        -0.010075     -0.015759      0.103421
Ti	      4.06618     10.12667      8.59610         0.049986     -0.012642      0.034443
Ti	      2.02453      8.10796      4.26175        -0.008974      0.014403      0.079978
Ti	      4.09432      1.97915      0.05790         0.008133     -0.058545      0.034263
Ti	      6.17426      4.07422      4.33266         0.124908      0.027943     -0.010189
Ti	      4.08935      6.12951      0.11288         0.027200      0.058238     -0.001176
Ti	      6.20572      8.08981      4.34028         0.160696     -0.011487     -0.029402
Ti	     12.06443      6.00587      8.50604        -0.091968     -0.107412     -0.017211
Ti	     10.05722      4.08874      4.31312        -0.095364      0.032983      0.038631
Ti	     12.09127     10.21298      8.59481        -0.091461      0.152113     -0.009049
Ti	     10.04451      8.07547      4.33071        -0.093142     -0.023076      0.043919
O	      2.01845      2.03153      0.06396        -0.018393     -0.001739     -0.017820
O	      4.02830      4.04995      4.39351        -0.017761      0.000644     -0.009844
O	      2.00610      6.08911      0.04935        -0.032743     -0.018359      0.013035
O	      4.02864      8.11052      4.41194        -0.016470     -0.003175      0.011793
O	      6.09829      2.07263      0.20332         0.059599      0.015989      0.008196
O	      8.11545      4.06830      4.31583         0.004290     -0.008001      0.049909
O	      6.09910      6.04910      0.08513         0.072691     -0.025651      0.031988
O	      8.11693      8.09403      4.37940        -0.051474      0.003447      0.108150
O	     10.11810      2.02644      0.10446         0.008493     -0.004051      0.024955
O	     12.19673      4.05073      4.35725         0.022297     -0.004856     -0.006445
O	     10.13953      6.09433      0.09198        -0.012467     -0.009248      0.037085
O	     12.19777      8.11091      4.36411         0.028534     -0.002883      0.016665
O	      4.08531      2.02200      2.12593         0.029213     -0.002123     -0.035527
O	      6.06001      4.04977      6.43034        -0.019675     -0.019358     -0.018601
O	      4.06655      6.09211      2.19501         0.021747     -0.010464     -0.048495
O	      6.06452      8.10350      6.44592        -0.007907     -0.002383     -0.030336
O	      8.11407      2.07633      1.98558         0.029278      0.018465     -0.009096
O	     10.14520      4.00416      6.36713         0.083175     -0.028765     -0.078052
O	      8.12658      6.03523      2.01705         0.072754     -0.029825     -0.062984
O	     10.14751      8.14814      6.43192         0.031422      0.017627     -0.035128
O	     12.13187      2.02500      2.08852        -0.031815     -0.004028     -0.000662
O	     14.20025      4.04582      6.35593        -0.003205      0.003078     -0.024804
O	     12.14372      6.08481      2.07998        -0.024150     -0.010706     -0.019232
O	     14.20231      8.10431      6.37671        -0.008383     -0.008551     -0.006891
O	      4.04939      4.04675      8.58361        -0.001510      0.030031     -0.027782
O	      2.02312      2.02236      4.26467        -0.000871      0.001633     -0.019891
O	      4.04692      8.09836      8.60194        -0.000803     -0.027786     -0.023099
O	      2.02047      6.07959      4.26782         0.015499      0.011486     -0.052460
O	      8.06362      4.04022      8.54935         0.009844      0.055932     -0.007817
O	      6.05178      2.02671      4.29921         0.002170     -0.014522     -0.003691
O	      8.11984      8.10505      8.56536         0.018260     -0.031621     -0.005168
O	      6.04720      6.07337      4.29431        -0.001590      0.007014      0.023308
O	     12.21239      4.03901      8.51088        -0.004368     -0.046772     -0.026334
O	     10.18552      2.02499      4.25865        -0.028676     -0.020741     -0.023088
O	     12.16236      8.11244      8.50860        -0.024547      0.011488     -0.019500
O	     10.20141      6.07676      4.23023        -0.040956      0.011639     -0.061243
O	      2.04054      4.05597      2.16732        -0.009914      0.016061      0.034057
O	      4.05046      6.07520      6.52170        -0.013361      0.005815      0.042300
O	      2.03753      8.11415      2.18116        -0.012016     -0.008668      0.049433
O	      4.05145     10.13416      6.50790        -0.008414      0.017490      0.037938
O	      6.08679      4.06148      2.26815         0.015564     -0.002137     -0.021269
O	      8.07534      6.07013      6.66481        -0.017723     -0.007386      0.075992
O	      6.04191      8.11131      2.29379         0.000978      0.004416      0.030010
O	      8.11804     10.13922      6.65876        -0.007946      0.006449      0.028208
O	     10.12510      4.05070      2.23277        -0.035414      0.007794     -0.003225
O	     12.20431      6.08207      6.47466        -0.006057      0.024717      0.014131
O	     10.16927      8.11486      2.23513        -0.036424      0.003722      0.024318
O	     12.16076     10.12412      6.52828        -0.019775     -0.011382      0.002669
