# total energy = -711.27894267 eV
 
CRYSTAL
PRIMVEC
12.237042 -0.001274 0.000951 
0.001842 8.081648 0.015886 
4.078707 4.024878 8.578812 
PRIMCOORD
92 1
Li	      6.14309      8.06633      8.57848        -0.009180      0.012377      0.017047
Li	      4.09915      6.05587      4.28235         0.000304     -0.001857     -0.022105
Li	      6.14214      4.02757      8.57012        -0.013535     -0.005061      0.016330
Li	      4.09791      2.01328      4.27245         0.004799      0.008449     -0.018502
Li	      8.17623      6.05437      4.33052         0.001622     -0.001201     -0.009664
Li	      8.17690     10.09518      4.33748        -0.000060     -0.001518     -0.011712
Li	     14.25472      8.06628      8.50495         0.004614      0.002814     -0.042630
Li	     12.20310      6.05407      4.35873        -0.005196     -0.002208     -0.007451
Li	     14.25379      4.02626      8.49801         0.008132     -0.000676     -0.046274
Li	     12.20476     10.09457      4.36468        -0.009438     -0.001844     -0.007214
Li	      4.11385      4.03780      2.10378         0.001357      0.001691      0.006681
Li	      6.13938      6.05091      6.53615        -0.001745     -0.003492      0.043067
Li	      4.11518      8.07986      2.10958         0.002303     -0.008317      0.008339
Li	      6.14121     10.09081      6.54100        -0.004979      0.002489      0.047063
Li	      8.13885      4.03771      2.13233         0.005224     -0.005845      0.009880
Li	      8.13949      8.07881      2.14049         0.005304      0.002611      0.009778
Li	     12.21793      4.03681      2.18148        -0.002309      0.009513      0.014319
Li	     14.25285      6.05051      6.46153         0.005638     -0.003028     -0.012174
Li	     12.21875      8.07855      2.18971        -0.001326     -0.008312      0.011068
Li	     14.25236     10.09001      6.46795         0.012770      0.006263     -0.009707
Ti	      2.04501      2.01758      2.16256        -0.021395      0.002753     -0.068631
Ti	      4.06700      4.03089      6.45352        -0.000441     -0.010566     -0.080577
Ti	      2.04695      6.05928      2.17267        -0.031315     -0.001123     -0.072321
Ti	      4.06812      8.07131      6.46167         0.000546      0.015426     -0.076638
Ti	      6.12932      2.01760      2.03667         0.010801      0.003188     -0.053381
Ti	      8.26672      4.02985      6.47321         0.091701      0.003753     -0.079443
Ti	      6.13176      6.05862      2.04458        -0.003496      0.005834     -0.057238
Ti	      8.26725      8.07020      6.48094         0.094308      0.000788     -0.078889
Ti	     10.17486      2.01667      2.04764         0.015818      0.007972     -0.052295
Ti	     12.13443      4.02904      6.47057        -0.100053      0.006696     -0.075340
Ti	     10.17291      6.05758      2.05612         0.034959     -0.002452     -0.046455
Ti	     12.13567      8.07132      6.47888        -0.106933     -0.005634     -0.078868
Ti	      4.09085      6.04817      8.57736        -0.014892     -0.011418      0.096503
Ti	     14.27122      4.03242      4.29244         0.022027      0.008006      0.060345
Ti	      4.09094     10.08677      8.58076        -0.001167      0.004428      0.102013
Ti	     14.27302      8.07588      4.30045         0.014758     -0.018030      0.053968
Ti	      8.26018      6.04704      8.56208         0.103590     -0.003860      0.075860
Ti	      6.14010      4.03457      4.40770        -0.023276     -0.004746      0.030801
Ti	      8.26357     10.08752      8.56809         0.092207     -0.002254      0.079430
Ti	      6.14016      8.07477      4.41648        -0.015878      0.003442      0.020735
Ti	     12.12600      6.04673      8.55820        -0.079761     -0.003227      0.093937
Ti	     10.18577      4.03234      4.41741        -0.001318      0.004826      0.053878
Ti	     12.12645     10.08765      8.56684        -0.073878     -0.003153      0.090827
Ti	     10.18657      8.07441      4.42458        -0.000820     -0.005585      0.061439
O	      2.02929      2.02251      0.05307        -0.007074     -0.001835     -0.005128
O	      4.07359      4.03458      4.35932         0.022076     -0.004064     -0.011015
O	      2.02880      6.06299      0.06325        -0.009812     -0.002903     -0.007958
O	      4.07434      8.07494      4.36661         0.023005     -0.004519     -0.007180
O	      6.10903      2.02228      0.05118         0.005292     -0.001406      0.073837
O	      8.16129      4.03414      4.37475        -0.000313     -0.004463      0.000668
O	      6.10964      6.06293      0.05731         0.008342     -0.001854      0.079177
O	      8.16214      8.07477      4.38273         0.001804     -0.004021      0.000034
O	     10.21217      2.02165      0.01487        -0.002087      0.000090     -0.014583
O	     12.24080      4.03363      4.35559        -0.009631     -0.006222     -0.000816
O	     10.21443      6.06239      0.02277        -0.003976     -0.001500     -0.013373
O	     12.24197      8.07450      4.36352        -0.012927     -0.002397      0.000006
O	      4.07448      2.01780      2.09833         0.010646     -0.001139      0.005592
O	      6.10344      4.02974      6.43993         0.011176      0.000313      0.019247
O	      4.07439      6.05885      2.10466         0.014451     -0.002688      0.005587
O	      6.10450      8.07093      6.44882         0.010555     -0.001407      0.020144
O	      8.15473      2.01755      2.07809        -0.005525     -0.005153      0.009250
O	     10.20671      4.02986      6.40268        -0.015785     -0.002841     -0.088886
O	      8.15567      6.05832      2.08713        -0.004201     -0.004937      0.013165
O	     10.20755      8.07033      6.40972        -0.012490     -0.001334     -0.089268
O	     12.24190      2.01707      2.09453        -0.015489     -0.002433      0.007010
O	     14.28566      4.02916      6.40055         0.007550     -0.001464      0.005720
O	     12.24335      6.05832      2.09860        -0.016372     -0.002729      0.006882
O	     14.28651      8.07050      6.40892         0.007437     -0.002229      0.006081
O	     16.30750      4.02610      8.56663        -0.002493      0.005980     -0.018000
O	      2.03929      2.01463      4.26798         0.009263      0.003894     -0.000239
O	     16.30834      8.06586      8.57640        -0.002208     -0.001343     -0.018130
O	      2.03992      6.05508      4.27431         0.009802      0.004611      0.002720
O	      8.11581      4.02636      8.55184         0.019815      0.002166     -0.021095
O	      6.12734      2.01357      4.22634         0.006346      0.009102      0.039333
O	      8.11669      8.06690      8.55960         0.020402      0.007156     -0.018320
O	      6.12809      6.05473      4.23450         0.006843      0.005473      0.033952
O	     12.28604      4.02630      8.53879        -0.014035      0.004607     -0.019388
O	     10.18939      2.01389      4.11367        -0.014349     -0.003963      0.004285
O	     12.28695      8.06701      8.54668        -0.013770      0.007604     -0.019125
O	     10.19063      6.05405      4.12080        -0.014059      0.006620      0.004728
O	      2.03974      4.03847      2.18663        -0.006681     -0.003865      0.006349
O	      4.08620      6.05047      6.46573         0.007425      0.001296      0.001796
O	      2.04067      8.07887      2.19358        -0.007168      0.007094      0.008615
O	      4.08731     10.09201      6.47181         0.006677      0.001886      0.003007
O	      6.12608      4.03764      2.34014         0.010751      0.001587      0.002202
O	      8.10774      6.04999      6.49390         0.011629      0.006086      0.013729
O	      6.12697      8.07890      2.34819         0.010919     -0.007744      0.000312
O	      8.10868     10.09098      6.50156         0.011734      0.004136      0.015298
O	     10.18768      4.03752      2.22742        -0.015647     -0.001764     -0.032204
O	     12.27895      6.05009      6.48117        -0.021212      0.002154      0.013805
O	     10.18866      8.07822      2.23538        -0.016511      0.002046     -0.031867
O	     12.27946     10.09101      6.48812        -0.020515      0.000406      0.018247
