# total energy = -91.54994208 eV
 
CRYSTAL
PRIMVEC
-0.000003 4.101936 0.000000 
4.161712 0.000018 4.068840 
4.204129 0.000001 -4.111335 
PRIMCOORD
16 1
Li	      2.17749      2.05149     -0.03319        -0.016887     -0.000519      0.021592
Li	      4.17489      0.00056     -0.00553        -0.003727     -0.000684      0.024786
Li	      6.19512      2.05154     -0.00706         0.014140      0.000320     -0.006420
Li	      4.24918      2.05153      1.84754         0.018607     -0.000044     -0.002304
Mn	      4.16434      0.00056      4.05706        -0.004953      0.000233     -0.116467
Mn	      2.10225      0.00055      2.03708         0.031837     -0.000053      0.008147
Ni	      6.23913      0.00056      2.01318        -0.044778      0.000162     -0.002505
Ni	      4.16442      2.05148     -1.99875         0.018183      0.000680     -0.056694
O	      4.17929      2.05154     -0.12993         0.009471      0.000465      0.204811
O	      6.43545      0.00056     -0.12019        -0.030276     -0.000065     -0.094499
O	      2.21281      2.05153     -2.03927        -0.154083      0.000101     -0.011158
O	      4.20131      0.00058     -2.16238         0.172633     -0.000868      0.058115
O	      6.16240      2.05154     -2.05548         0.144661     -0.000062     -0.009837
O	      4.15975      0.00057      2.12355        -0.186673     -0.000325     -0.039482
O	      4.19287      2.05151     -3.96341        -0.004130      0.000038     -0.064823
O	      1.93844      0.00055      0.08029         0.035973      0.000622      0.086737
