# total energy = -711.35258788 eV
 
CRYSTAL
PRIMVEC
12.179449 -0.000986 0.009557 
0.002039 8.110692 0.015379 
4.065630 4.039000 8.587556 
PRIMCOORD
92 1
Li	      2.01681      4.05587      0.09264         0.001675      0.004282      0.007787
Li	      4.04712      6.07308      4.31582         0.020306      0.006238     -0.013406
Li	      2.01677      8.11164      0.09989         0.002910     -0.004627      0.009227
Li	      4.07189      2.02741      4.26878        -0.004147     -0.005488     -0.008027
Li	     10.18016      8.12916      8.52083        -0.005689     -0.013149     -0.012441
Li	      8.15179      6.07518      4.37551        -0.020910      0.001731     -0.006319
Li	     10.18197     12.11838      8.54424        -0.002201      0.018296     -0.013848
Li	      8.13365     10.13561      4.35054        -0.001548     -0.000392      0.002214
Li	     10.14355      4.05641      0.05488        -0.000040      0.002076      0.014163
Li	     10.14530      8.10954      0.06125        -0.001068     -0.001581      0.006589
Li	      4.06327      4.05980      2.14446        -0.016066      0.002911      0.000190
Li	      6.13064      6.06721      6.43575        -0.019198      0.007325     -0.015645
Li	      4.01800      8.10292      2.16285         0.013553     -0.003901      0.012091
Li	      6.07628     10.13510      6.41168         0.011817     -0.013164     -0.014642
Li	      8.13668      4.05630      2.26022         0.010452     -0.006360     -0.001491
Li	     10.19011      6.07182      6.39763        -0.000339     -0.008079      0.003557
Li	      8.17367      8.10363      2.26123        -0.003035      0.010042      0.006270
Li	     14.14009      6.06498      6.38997         0.023010      0.002782      0.004368
Li	     12.18275      8.11132      2.20932        -0.001488      0.006274      0.000046
Li	     14.19524     10.13609      6.40030         0.007019     -0.010171      0.008375
Ti	      1.96005      2.07972      2.24085        -0.026368      0.051025     -0.004340
Ti	      4.03461      4.05402      6.45066        -0.035623      0.018122     -0.028403
Ti	      1.97102      6.02691      2.24436        -0.038436     -0.056214      0.004370
Ti	      4.04696      8.09238      6.44846         0.016089     -0.017979     -0.036292
Ti	      6.09865      2.02225      2.11147        -0.000190     -0.024005     -0.027848
Ti	      8.18252      3.99538      6.47205         0.068706     -0.041165     -0.026110
Ti	      6.09008      6.08409      2.19914         0.002833      0.033926     -0.073004
Ti	      8.17132      8.15023      6.47729         0.023933      0.043482     -0.025683
Ti	     10.21463      2.06718      2.21201         0.015764      0.039717      0.058087
Ti	     12.15414      4.00034      6.34536        -0.027654     -0.028310     -0.041090
Ti	     10.23232      6.03422      2.25657         0.019527     -0.036605      0.040003
Ti	     12.15750      8.13830      6.33418        -0.016521      0.033602     -0.018416
Ti	      4.05905      6.09950      8.52501        -0.003299      0.042333      0.008835
Ti	     14.10346      4.04251      4.27167        -0.121829     -0.005436      0.023141
Ti	      4.05720     10.08532      8.55729        -0.010383     -0.035932      0.029828
Ti	     14.13894      8.11452      4.31873        -0.036602      0.006385      0.015559
Ti	      4.09052      2.02883      0.01229         0.043388      0.003573      0.028428
Ti	      6.09545      4.06274      4.26345        -0.001092     -0.007063      0.012743
Ti	      8.16349     10.12517      8.53796         0.055496     -0.001004      0.046452
Ti	      6.09437      8.09359      4.27396        -0.012625      0.000921      0.039558
Ti	      8.09255      2.03147      0.09837        -0.048242      0.001248     -0.004038
Ti	     10.25006      4.01485      4.32443         0.122383     -0.042661     -0.029424
Ti	      8.09942      6.08070      0.10347        -0.038552      0.001814      0.014521
Ti	     10.22796      8.14750      4.35029         0.043335      0.043969     -0.028862
O	      2.00978      2.03088      0.07629        -0.026333     -0.008656      0.002372
O	      4.08464      4.04980      4.34424         0.035109      0.011744      0.009317
O	      2.02886      6.08424      0.08648        -0.021265      0.000760     -0.013485
O	      4.08244      8.10635      4.34005         0.007984     -0.012349      0.001678
O	      6.08321      2.02857      0.01990        -0.005555     -0.002576      0.000385
O	      8.09771      4.05197      4.36245        -0.035275      0.006489      0.002172
O	      6.07924      6.08544      0.11015        -0.003581     -0.008154     -0.007389
O	      8.10556      8.10323      4.37024        -0.001202     -0.003038     -0.009449
O	     10.17672      2.03210      0.09157         0.036507     -0.002333      0.010269
O	     12.18093      4.03420      4.34601        -0.000189     -0.004350      0.058176
O	     10.17295      6.08012      0.12197         0.026398     -0.003071      0.009938
O	     12.18308      8.12482      4.32483        -0.007268      0.006421      0.017607
O	      4.02204      2.02970      2.10701        -0.020501     -0.012121      0.008627
O	      6.08472      4.03966      6.36281        -0.006912      0.003801     -0.004395
O	      4.04446      6.08038      2.10363        -0.024832     -0.004430      0.036707
O	      6.08964      8.10667      6.38139        -0.007679     -0.010856     -0.005597
O	      8.15237      2.02489      2.15446         0.023988      0.006153     -0.011466
O	     10.14730      4.08361      6.41703        -0.027247     -0.003019      0.001753
O	      8.13670      6.08180      2.16827         0.025217     -0.003671     -0.013864
O	     10.14525      8.05982      6.42270        -0.008630      0.001139     -0.000897
O	     12.19046      1.96941      2.00274        -0.000914     -0.024713     -0.042050
O	     14.22258      4.04758      6.39354         0.024026     -0.005044      0.011017
O	     12.19804      6.14196      2.03115         0.000424      0.007409     -0.029377
O	     14.22368      8.09589      6.40884        -0.007662      0.004088     -0.008617
O	      4.06228      4.03529      8.50185         0.010232     -0.005027     -0.014319
O	      2.07895      2.01291      4.27379        -0.029486      0.000212     -0.026527
O	      4.06572      8.09920      8.51028        -0.005580      0.017022     -0.028238
O	      2.07393      6.08914      4.26583        -0.016438     -0.001569     -0.023720
O	      8.13001      4.05496      8.56041        -0.014934      0.006884     -0.003437
O	      6.08660      2.01995      4.23642        -0.007249      0.016817      0.002144
O	      8.13615      8.08268      8.56499        -0.001142      0.001815     -0.010885
O	      6.08765      6.07974      4.30336         0.006475     -0.012210     -0.018600
O	     12.18659      4.03994      8.53587         0.000189     -0.016351      0.040808
O	     10.10626      2.01959      4.23587         0.036648     -0.003906     -0.017777
O	     12.18179      8.09696      8.53722        -0.001608      0.018421      0.035922
O	     10.11524      6.08001      4.28462         0.025301      0.000216      0.011218
O	      2.06618      4.05702      2.18747        -0.017273      0.001066      0.007098
O	      4.05762      6.06765      6.44681         0.001871      0.002487      0.029517
O	      2.02481      8.10502      2.24101        -0.019964      0.004982     -0.013249
O	      4.05696     10.13424      6.48106         0.004021     -0.001620      0.003260
O	      6.10009      4.04052      2.17598        -0.000777      0.006769      0.013745
O	      8.11432      6.07290      6.51715         0.010597      0.006976      0.014217
O	      6.10203      8.12142      2.18112        -0.007609     -0.006075      0.015510
O	      8.06575     10.12830      6.46639         0.006878     -0.005992      0.021364
O	     10.11515      4.05500      2.22410         0.014744      0.012310     -0.022336
O	     12.19526      6.07595      6.63231        -0.007482      0.004951      0.012844
O	     10.16069      8.10291      2.25087         0.022983     -0.003248     -0.028224
O	     12.25277     10.12416      6.66056         0.005947     -0.003344      0.009158
