# total energy = -711.35267633 eV
 
CRYSTAL
PRIMVEC
12.222451 -0.001761 0.027026 
0.001561 8.085913 0.016187 
4.091850 4.027078 8.624636 
PRIMCOORD
92 1
Li	      2.04817      4.04759      0.03715        -0.005559     -0.008451     -0.001929
Li	      4.08318      6.05736      4.34675         0.001835     -0.000387     -0.013860
Li	      2.04924      8.08621      0.04478        -0.005351      0.004847      0.001133
Li	      4.07602     10.10052      4.35712         0.015680      0.001367     -0.016038
Li	     10.23207      8.06809      8.53713         0.000263      0.002593     -0.004771
Li	      8.19412      6.05706      4.39571        -0.002612     -0.002291     -0.028109
Li	     10.23128      4.03187      8.52901        -0.000221     -0.003255     -0.002533
Li	      8.20084     10.09977      4.41012        -0.008784     -0.002871     -0.031871
Li	     14.25008      8.07107      8.54584         0.000722      0.001512     -0.032677
Li	     14.25016      4.02782      8.53828        -0.003491     -0.004611     -0.032158
Li	      4.06593      4.04107      2.15565         0.011857     -0.003178     -0.007487
Li	      6.12724      6.05362      6.46231        -0.008436     -0.004407      0.021300
Li	      4.06779      8.08199      2.16379         0.011384      0.002243     -0.006122
Li	      6.13001     10.09667      6.47174        -0.013308      0.000501      0.018191
Li	      8.18015      4.03349      2.29566        -0.002159      0.010387      0.032698
Li	      8.17977      8.08593      2.30568        -0.002042     -0.005677      0.031407
Li	     12.19832      4.04352      2.30144        -0.002211     -0.008072      0.005538
Li	     14.23202      6.05196      6.44287         0.008174     -0.001137      0.029520
Li	     12.19913      8.07741      2.31038        -0.001392      0.008137      0.006956
Li	     14.23248     10.09553      6.45057         0.006879     -0.002893      0.028349
Ti	      1.99099      2.01849      2.23204        -0.023293     -0.001013     -0.038809
Ti	      4.08266      4.03260      6.48533         0.061694     -0.002673     -0.168841
Ti	      1.99372      6.06229      2.24891        -0.020573     -0.004337     -0.054201
Ti	      4.08305      8.07411      6.49211         0.058784      0.008565     -0.164772
Ti	      6.12675      2.01805      2.20658         0.020011      0.000102     -0.073940
Ti	      8.23417      4.03255      6.48725        -0.017351      0.004351     -0.113342
Ti	      6.13235      6.06003      2.20065         0.017097      0.004327     -0.050553
Ti	      8.23372      8.07426      6.49502        -0.012991     -0.007287     -0.112923
Ti	     10.20035      2.01737      2.10862         0.011465     -0.001323      0.005225
Ti	     12.18048      4.02737      6.36640        -0.067013      0.012652     -0.067697
Ti	     10.19183      6.06030      2.11887         0.027038      0.002042      0.008492
Ti	     12.18139      8.07597      6.37430        -0.063602     -0.006834     -0.068053
Ti	     16.29972      6.05042      8.63627        -0.017459     -0.011203      0.055595
Ti	     14.19498      4.03449      4.34557         0.012544      0.006310      0.112235
Ti	      4.07927     10.09444      8.60595        -0.015105     -0.008212      0.078147
Ti	     14.19689      8.07820      4.35504         0.008925     -0.006778      0.106222
Ti	      8.21347      6.05076      8.56979         0.026483     -0.001386      0.044028
Ti	      6.12429      4.03236      4.31863        -0.063126      0.012179      0.165772
Ti	      8.21681     10.09290      8.57878         0.024934      0.002991      0.058126
Ti	      6.12391      8.08307      4.33024        -0.051717     -0.011738      0.153292
Ti	      8.14248      2.02102      0.09829        -0.026633      0.004941     -0.007495
Ti	     10.24928      4.03380      4.46733         0.063568     -0.000355      0.070902
Ti	      8.13929      6.06418      0.11276        -0.021128      0.003678     -0.022322
Ti	     10.24962      8.07761      4.47557         0.063530      0.003023      0.071599
O	      2.05879      2.02386      0.08802        -0.010964     -0.002845      0.022288
O	      4.09622      4.03643      4.37279        -0.011221     -0.007261     -0.024309
O	      2.05366      6.06663      0.09915         0.001410     -0.004490      0.001292
O	      4.09585      8.07908      4.37969        -0.008409     -0.002418     -0.020010
O	      6.09135      2.02258      0.13261        -0.020714     -0.004497      0.061980
O	      8.14084      4.03474      4.39477         0.039220     -0.006099      0.013657
O	      6.09238      6.06617      0.13152        -0.031859     -0.004448      0.058747
O	      8.14266      8.07922      4.40284         0.030482      0.000188      0.015131
O	     10.20035      2.02230      0.03215         0.023097      0.000111      0.046343
O	     12.22854      4.03581      4.36898        -0.010911     -0.001203      0.092265
O	     10.20506      6.06546      0.04301         0.021436     -0.002149      0.045794
O	     12.22897      8.07877      4.37729        -0.010040     -0.008322      0.094947
O	      4.06084      2.01878      2.09464         0.000505     -0.006683     -0.017626
O	      6.11028      4.03366      6.43058         0.013581     -0.003774      0.029536
O	      4.05556      6.06168      2.09691         0.000148     -0.006794     -0.001039
O	      6.11193      8.07349      6.44072         0.006730      0.000609      0.028146
O	      8.13334      2.01708      2.17546        -0.011989     -0.000059     -0.052730
O	     10.20078      4.02984      6.46450         0.008170      0.001808     -0.095772
O	      8.13805      6.05948      2.18903        -0.021861      0.003027     -0.061159
O	     10.20147      8.07431      6.47223         0.008995     -0.001890     -0.096641
O	     12.24570      2.01723      2.08355         0.017854      0.001932     -0.057488
O	     14.28837      4.02967      6.43820        -0.037361      0.000232     -0.009128
O	     12.24633      6.06050      2.07865         0.034355      0.002193     -0.036997
O	     14.28769      8.07520      6.44741        -0.029285     -0.005226     -0.008677
O	      4.08331      4.03131      8.57891        -0.006985      0.002653     -0.020291
O	      2.10466      2.01492      4.28398        -0.010600      0.011264     -0.058772
O	      4.08358      8.07162      8.58804        -0.006230      0.005411     -0.026796
O	      2.10634      6.05815      4.29626        -0.016162      0.004155     -0.069435
O	      8.18292      4.02883      8.58798         0.018397     -0.003749     -0.036273
O	      6.11069      2.01385      4.31804         0.009686      0.002296     -0.076995
O	      8.18431      8.07264      8.59704         0.015097      0.003166     -0.040389
O	      6.11053      6.05819      4.31170         0.017139      0.001206     -0.039992
O	     12.24479      4.02701      8.58399        -0.010083      0.007325     -0.013212
O	     10.13980      2.01411      4.14513        -0.019339      0.004964     -0.062236
O	     12.24506      8.07035      8.59226        -0.007266      0.011197     -0.011370
O	     10.14106      6.05706      4.15304        -0.023545      0.001641     -0.068659
O	      2.02348      4.03907      2.21819        -0.018324      0.005611      0.032003
O	      4.09516      6.05393      6.49479        -0.009411      0.001981      0.068517
O	      2.02396      8.08374      2.22571        -0.017541      0.003652      0.036890
O	      4.09762     10.09640      6.49958        -0.018218      0.002408      0.067982
O	      6.12359      4.04186      2.22384         0.006279     -0.002020      0.023966
O	      8.10150      6.05313      6.51958         0.014644      0.001581      0.061337
O	      6.12468      8.07892      2.23407         0.003586      0.006668      0.025223
O	      8.10018     10.09618      6.52942         0.020701      0.004826      0.060601
O	     10.18446      4.03880      2.25154         0.008319     -0.001622      0.004517
O	     12.28914      6.05219      6.69017         0.022160     -0.004037      0.062030
O	     10.18495      8.08177      2.25938         0.009160      0.000936      0.005568
O	     12.29114     10.09515      6.69692         0.019854      0.000165      0.063012
