# total energy = -651.06486493 eV
 
CRYSTAL
PRIMVEC
11.579053 -0.001845 0.002192 
0.001322 7.715848 0.017490 
3.859724 3.839774 9.581650 
PRIMCOORD
74 1
Li	      5.79199      0.00105      0.00382         0.002779     -0.001723     -0.000125
Li	     11.57742      7.71103      2.42252         0.007571     -0.001183      0.003179
Ti	      1.97704      1.96105      2.42186         0.065922      0.073374     -0.029736
Ti	      3.86346      3.84666      7.21814         0.020331     -0.002537     -0.007232
Ti	      1.97741      5.74870      2.42920         0.064760     -0.074030     -0.025606
Ti	      3.87242      7.70447      7.19862         0.026555     -0.003585      0.002996
Ti	      5.79121      1.94533      2.41977         0.000493      0.023604      0.009521
Ti	      7.68653      3.84621      7.17320        -0.054895     -0.000923     -0.055615
Ti	      5.79090      5.76672      2.42791         0.006787     -0.036798      0.015689
Ti	      7.70124      7.70403      7.17741        -0.004363     -0.004163     -0.006599
Ti	      9.60004      1.96474      2.42861        -0.064705      0.073159     -0.029085
Ti	     11.60473      3.84680      7.17114         0.039128     -0.008216     -0.038051
Ti	      9.60060      5.74340      2.43685        -0.064834     -0.076964     -0.022404
Ti	     11.58092      7.70475      7.15627        -0.016640     -0.006226      0.002197
Ti	      3.85952      5.78738      9.57957        -0.005811      0.042713     -0.026679
Ti	      1.94905      3.85261      4.82697         0.006657     -0.005999      0.010962
Ti	      3.85983      9.61062      9.58754         0.001894     -0.040422     -0.019600
Ti	      1.96334      7.70999      4.83230         0.060386     -0.005848      0.052292
Ti	      7.67419      5.80488      9.57603        -0.073274      0.084053      0.020776
Ti	      5.77835      3.84971      4.80867        -0.029825     -0.001109     -0.006496
Ti	      7.67561      9.59279      9.58404        -0.082032     -0.086050      0.024959
Ti	      5.78516      7.70704      4.78683        -0.012641      0.005984      0.014496
Ti	     11.62799      5.80685      9.57052         0.076736      0.090948      0.025527
Ti	      9.64911      3.84950      4.85194         0.014107      0.000467     -0.004626
Ti	     11.62897      9.58683      9.57940         0.073026     -0.081284      0.023344
Ti	      9.62509      7.70741      4.83616        -0.042268     -0.001164      0.038524
O	      1.92989      1.94009      0.40705         0.052115     -0.010909     -0.006732
O	      3.86272      3.85037      5.21163        -0.010777     -0.005462     -0.001232
O	      1.93082      5.77905      0.41576         0.052746     -0.003035     -0.007789
O	      3.86799      7.70851      5.19646        -0.021171     -0.008511      0.002309
O	      5.79073      1.86450      0.40214         0.008939     -0.016688     -0.007161
O	      7.71488      3.85004      5.20595        -0.001811     -0.007638      0.048107
O	      5.79138      5.85116      0.41164         0.009354      0.016996     -0.011949
O	      7.71143      7.70792      5.19409         0.020389     -0.004251      0.030913
O	      9.64966      1.94377      0.40876        -0.070063     -0.007476      0.005426
O	     11.58207      3.84925      5.20742        -0.006741     -0.005836      0.060561
O	      9.65051      5.77285      0.41746        -0.071567     -0.007264      0.001500
O	     11.58182      7.70746      5.17241        -0.015382     -0.005426      0.037990
O	      3.86096      1.93539      2.00858        -0.057655      0.000848      0.003836
O	      5.78231      3.84545      6.80914         0.024447      0.000458     -0.006268
O	      3.86169      5.77454      2.01771        -0.054600      0.004618     -0.000453
O	      5.78768      7.70397      6.79392         0.001644      0.001907      0.000216
O	      7.71937      1.93975      2.00891         0.060292      0.003058     -0.005919
O	      9.64809      3.84484      6.83479         0.011617      0.004231     -0.037983
O	      7.72013      5.76903      2.01796         0.062447      0.001519     -0.010569
O	      9.64821      7.70366      6.79978        -0.006889      0.001552     -0.058446
O	     11.57889      1.86057      2.01495        -0.013179     -0.014382      0.007300
O	     13.51809      3.84412      6.81335        -0.026203      0.003460     -0.027889
O	     11.57958      5.84672      2.02413        -0.013479      0.020650      0.004784
O	     13.51485      7.70264      6.80120        -0.005697     -0.000023     -0.044296
O	      3.85568      3.84155      9.22618         0.011997      0.005724     -0.033941
O	      1.94487      1.92527      4.40258         0.020127      0.011892     -0.027770
O	      3.86224      7.69962      9.20591         0.008444      0.003424     -0.013005
O	      1.94543      5.77697      4.41115         0.020125     -0.006988     -0.024384
O	      7.77467      3.84115      9.19708         0.014075      0.006039     -0.003552
O	      5.78596      1.92290      4.39640         0.005600      0.002677     -0.031455
O	      7.73683      7.69933      9.20130        -0.001993     -0.001455     -0.014183
O	      5.78651      5.77797      4.40547         0.004764      0.014098     -0.030088
O	     11.52754      3.84051      9.19482        -0.020427      0.006909     -0.011478
O	      9.63405      1.92551      4.41034        -0.008890      0.003608     -0.023192
O	     11.55905      7.69839      9.18994         0.007124      0.007818      0.010299
O	      9.63482      5.77393      4.41919        -0.008287      0.010313     -0.021722
O	      1.91334      3.85434      2.80424         0.009693      0.004557      0.014501
O	      3.86287      5.77490      7.60063        -0.000631     -0.001559      0.038968
O	      1.87633      7.71202      2.80814        -0.013749      0.006751      0.003953
O	      3.86364      9.63079      7.60937        -0.000093      0.006354      0.039894
O	      5.78739      3.85410      2.79995         0.000721      0.000785      0.017703
O	      7.70427      5.77644      7.59399        -0.013090      0.017678      0.032986
O	      5.79445      7.71191      2.77987        -0.009527     -0.005966      0.039869
O	      7.70484      9.62857      7.60309        -0.012255     -0.007465      0.028254
O	      9.66995      3.85304      2.81770        -0.002742     -0.000272     -0.010102
O	     11.59410      5.77756      7.58810         0.013872     -0.003268      0.030778
O	      9.70228      7.71098      2.81287         0.016456     -0.000066      0.011351
O	     11.59498      9.62656      7.59746         0.014067     -0.000061      0.027454
