# total energy = -654.45939996 eV
 
CRYSTAL
PRIMVEC
11.648732 -0.002527 0.002864 
0.000869 7.771198 0.016750 
3.883301 3.866815 9.495232 
PRIMCOORD
75 1
Li	      1.93945      3.89273      0.02708        -0.000234     -0.005455      0.023111
Li	      7.76465      3.88070      2.40461         0.004801     -0.000858      0.006471
Li	      9.71359      5.80852      7.14127         0.006482      0.004001     -0.001985
Ti	      1.93374      1.91823      2.40637         0.002494     -0.030919      0.033764
Ti	      3.86646      3.87173      7.11035         0.007334     -0.006785     -0.021391
Ti	      1.93295      5.84721      2.40534         0.003992      0.029003      0.016309
Ti	      3.85072      7.76198      7.12044        -0.014972     -0.000617     -0.051267
Ti	      5.77602      1.89850      2.38718        -0.071754     -0.065927      0.034771
Ti	      7.71264      3.83785      7.07141        -0.066150     -0.062887     -0.001793
Ti	      5.77683      5.86532      2.41447        -0.069623      0.061650      0.014235
Ti	      7.74046      7.80269      7.11192        -0.041256      0.055656     -0.032246
Ti	      9.76931      1.90322      2.39502         0.076775     -0.061748     -0.017637
Ti	     11.71432      3.83539      7.12859         0.073355     -0.064231     -0.015095
Ti	      9.76459      5.85795      2.42740         0.078790      0.054121     -0.022283
Ti	     11.69889      7.79583      7.17041         0.061328      0.056433     -0.025542
Ti	     15.49720      5.77200      9.47926        -0.051858     -0.061429     -0.019843
Ti	      1.94466      3.88212      4.71081        -0.007383      0.000515      0.010132
Ti	     15.48588      9.72813      9.50019        -0.065291      0.064412     -0.018946
Ti	     13.58163      7.75915      4.76122        -0.013288     -0.002898      0.005757
Ti	      3.90281      1.89630      0.01074         0.045614     -0.069235      0.009869
Ti	      5.78762      3.87530      4.75305        -0.021565     -0.000239      0.028432
Ti	      3.93116      5.86888      0.02447         0.072958      0.067323      0.004781
Ti	      5.81965      7.76621      4.78920         0.015573     -0.001566     -0.005737
Ti	      7.79000      1.92100      0.02224         0.009867     -0.026363      0.013561
Ti	      9.75101      3.85586      4.76794         0.032234     -0.023401      0.010902
Ti	      7.77097      5.84814      0.03943        -0.015514      0.022210      0.006557
Ti	      9.72822      7.77985      4.77918         0.002412      0.021921     -0.013982
O	      1.93827      2.00742      0.38095        -0.006245      0.015229      0.030059
O	      3.87487      3.88174      5.12330         0.006671     -0.000890      0.051145
O	      1.93890      5.76684      0.39808        -0.020165     -0.010425      0.037665
O	      3.88019      7.75707      5.15525        -0.014328     -0.004570      0.076625
O	      5.81952      1.92803      0.35266        -0.029800     -0.005758      0.034869
O	      7.76015      3.86243      5.10064        -0.008669     -0.001432      0.082877
O	      5.82463      5.84119      0.40063        -0.038065      0.006875      0.028789
O	      7.76355      7.77420      5.15363        -0.016903      0.001620      0.088652
O	      9.71541      1.93596      0.39178         0.020954     -0.010898      0.041812
O	     11.66311      3.86273      5.13023        -0.020419     -0.005865      0.044502
O	      9.71111      5.83473      0.41822         0.042439      0.001274      0.029948
O	     11.65546      7.77207      5.16690         0.006831      0.003245      0.028948
O	      3.88221      1.92917      1.99767         0.045530     -0.013440     -0.055067
O	      5.81623      3.87273      6.74085         0.033306     -0.006812     -0.057534
O	      3.88290      5.83880      2.01277         0.042898      0.007862     -0.042579
O	      5.82228      7.76175      6.79515         0.029740      0.002251     -0.045640
O	      7.76227      2.00503      2.00363         0.000464      0.020712     -0.054433
O	      9.71270      3.93376      6.74530         0.015463      0.018961     -0.056051
O	      7.76559      5.75949      2.02644         0.006697     -0.016676     -0.050070
O	      9.71379      7.69468      6.77822         0.003883     -0.010413     -0.040729
O	     11.65141      1.93377      2.01112        -0.054722     -0.010595     -0.005020
O	     13.59377      3.87638      6.74281        -0.054281     -0.002954     -0.002304
O	     11.64840      5.83045      2.02646        -0.051016      0.009105     -0.009811
O	     13.58729      7.75256      6.77716        -0.023228      0.000524     -0.020260
O	      3.89763      3.86773      9.12355        -0.006432      0.004010     -0.029981
O	      1.94776      1.93398      4.36845         0.003169      0.002437     -0.098162
O	      3.94124      7.75618      9.13686        -0.006501      0.002264     -0.036682
O	      1.93798      5.82345      4.37893        -0.003160     -0.001595     -0.082689
O	      7.73548      3.86391      9.10671         0.003981      0.006359     -0.010006
O	      5.80493      1.92973      4.36372        -0.009663     -0.000561     -0.063807
O	      7.70112      7.75761      9.12806        -0.003836      0.006920     -0.040735
O	      5.81573      5.82548      4.38576        -0.001319      0.005060     -0.073133
O	     11.66352      3.86442      9.12900         0.009264     -0.001985     -0.032482
O	      9.71677      1.93070      4.38511         0.016478     -0.002368     -0.046109
O	     11.65749      7.75646      9.16638         0.005220      0.004602     -0.060681
O	      9.71920      5.82232      4.42203         0.010085      0.006590     -0.066977
O	      1.94475      3.88250      2.72820         0.000749      0.004411      0.067773
O	      3.87362      5.81167      7.51197        -0.002368     -0.001602      0.069505
O	      1.93788      7.76776      2.76627         0.003260      0.001267      0.053565
O	      3.86662      9.70441      7.52177        -0.003809      0.010571      0.063562
O	      5.87615      3.87982      2.75449        -0.007093      0.004805      0.043885
O	      7.83251      5.80841      7.49856        -0.012729     -0.000482      0.024448
O	      5.84117      7.76811      2.77488        -0.003166      0.000862      0.020108
O	      7.79168      9.70692      7.50668        -0.012201     -0.002400      0.009201
O	      9.65132      3.87975      2.76848         0.008161      0.002274      0.050939
O	     11.59379      5.81146      7.51633         0.006945      0.003757      0.048969
O	      9.69275      7.76629      2.78175         0.015462      0.005761      0.046608
O	     11.64381      9.70155      7.52664         0.017340     -0.000576      0.035581
