# total energy = -657.76648119 eV
 
CRYSTAL
PRIMVEC
11.718887 -0.001736 -0.000362 
0.001437 7.797516 0.014531 
3.905882 3.878082 9.377139 
PRIMCOORD
76 1
Li	      5.85906      3.89872      0.08434        -0.001835     -0.000883      0.022687
Li	      5.85972      7.79745      0.09091        -0.002123      0.000062      0.022613
Li	      9.76794      5.83289      6.96835        -0.000919     -0.002600     -0.018772
Li	      9.76893      9.73172      6.97500        -0.002852     -0.003956     -0.018143
Ti	      1.92443      1.94585      2.38711        -0.044062      0.002289      0.080802
Ti	      3.90916      3.88091      7.05434         0.002345      0.005531      0.014303
Ti	      1.92542      5.84454      2.39413        -0.044906      0.003275      0.082854
Ti	      3.90921      7.77981      7.06151         0.003449      0.005906      0.014346
Ti	      5.86160      1.94487      2.36844        -0.006926      0.003323      0.110196
Ti	      7.69617      3.88375      7.00002        -0.159320     -0.002713     -0.084223
Ti	      5.86201      5.84366      2.37567        -0.001871      0.006487      0.114418
Ti	      7.69632      7.78247      7.00751        -0.155671      0.001050     -0.082810
Ti	      9.79741      1.94367      2.40080         0.042772      0.005842     -0.001889
Ti	     11.84411      3.88273      7.01026         0.167121      0.002292     -0.084217
Ti	      9.79839      5.84243      2.40783         0.039589      0.002510      0.000552
Ti	     11.84441      7.78151      7.01719         0.167683     -0.001697     -0.080109
Ti	      3.90427      5.82935      9.37187        -0.003747      0.001670     -0.009996
Ti	      1.98379      3.89266      4.66216         0.040890     -0.004624     -0.079654
Ti	      3.90477      9.72823      9.37942        -0.000596     -0.003110     -0.013587
Ti	      1.98366      7.79134      4.66931         0.046116     -0.006548     -0.081230
Ti	      3.78236      1.95005      0.03935        -0.163662      0.000122      0.082539
Ti	      5.83000      3.89067      4.64884        -0.041492     -0.003827     -0.001690
Ti	      3.78330      5.84899      0.04657        -0.165692     -0.003667      0.077014
Ti	      5.83034      7.78962      4.65627        -0.044926     -0.007121     -0.003316
Ti	      7.93020      1.94915      0.04928         0.158491      0.001188      0.084966
Ti	      9.76618      3.88943      4.68128         0.003902     -0.005938     -0.119874
Ti	      7.93073      5.84804      0.05660         0.160684     -0.003715      0.086193
Ti	      9.76611      7.78804      4.68832         0.006188     -0.007157     -0.115146
O	      1.92916      1.94988      0.35504         0.105412      0.000696     -0.009369
O	      3.91152      3.88893      5.04088        -0.018040      0.000862      0.042903
O	      1.93012      5.84745      0.36195         0.105210      0.003829     -0.005600
O	      3.91174      7.78842      5.04811        -0.015072      0.000175      0.043419
O	      5.86245      1.94855      0.32124         0.011723      0.008151     -0.006133
O	      7.80264      3.88869      5.06280         0.013360     -0.000711      0.073773
O	      5.86351      5.84761      0.32828         0.010579      0.007398     -0.005003
O	      7.80321      7.78702      5.07033         0.014004     -0.000661      0.071599
O	      9.78717      1.94672      0.38519        -0.095434      0.000578     -0.007270
O	     11.72784      3.88845      5.07910         0.005430      0.000842      0.087791
O	      9.78804      5.84597      0.39192        -0.096978      0.001293     -0.000674
O	     11.72876      7.78674      5.08607         0.001023      0.003520      0.087387
O	      3.89850      1.94686      1.97023        -0.012599     -0.006252     -0.090329
O	      5.83939      3.88457      6.66533         0.091371     -0.000655     -0.003693
O	      3.89957      5.84577      1.97733        -0.014455     -0.005734     -0.089334
O	      5.83971      7.78380      6.67238         0.094463     -0.001770     -0.000038
O	      7.82336      1.94567      1.98669        -0.014047     -0.003142     -0.078775
O	      9.76368      3.88367      6.72869        -0.000509      0.001655      0.006358
O	      7.82440      5.84392      1.99390        -0.016509     -0.001625     -0.078812
O	      9.76462      7.78253      6.73535        -0.003750      0.000514      0.010660
O	     11.71493      1.94537      2.00882         0.012537     -0.003783     -0.041850
O	     13.69700      3.88374      6.69448        -0.103261     -0.003326      0.012082
O	     11.71593      5.84406      2.01639         0.010440     -0.002940     -0.045113
O	     13.69750      7.78125      6.70165        -0.105208      0.000032      0.010529
O	      3.90485      3.87954      9.02235         0.001268      0.000856     -0.053902
O	      1.96107      1.94274      4.33814         0.001554     -0.002375     -0.081706
O	      3.90451      7.77860      9.02946         0.002410     -0.004827     -0.053360
O	      1.96248      5.84151      4.34543         0.000728     -0.003518     -0.083905
O	      7.86726      3.87950      9.03112         0.009754      0.001876      0.013283
O	      5.85813      1.94124      4.30798        -0.000547      0.004233     -0.112391
O	      7.86810      7.77850      9.03855         0.011394     -0.001761      0.010512
O	      5.85826      5.84028      4.31536         0.000102     -0.002112     -0.114806
O	     11.66338      3.87861      9.04467        -0.014854     -0.001397      0.004688
O	      9.76528      1.94018      4.41164        -0.004368     -0.001663     -0.040265
O	     11.66420      7.77719      9.05197        -0.015490      0.000834      0.003370
O	      9.76642      5.83888      4.41908        -0.006287     -0.000487     -0.044349
O	      1.94545      3.89518      2.71123         0.003930      0.001198      0.080384
O	      3.90903      5.83219      7.40448         0.002999      0.003633      0.056862
O	      1.94582      7.79379      2.71813         0.004480      0.002936      0.082248
O	      3.90901      9.73094      7.41183         0.003758      0.005770      0.055649
O	      5.86068      3.89389      2.63794         0.003414     -0.000365      0.050477
O	      7.86923      5.83235      7.38202         0.013449      0.003073     -0.004595
O	      5.86168      7.79267      2.64535         0.003271     -0.001336      0.048428
O	      7.87025      9.73114      7.38883         0.012670      0.001234     -0.001346
O	      9.76765      3.89253      2.74198         0.005370      0.001965      0.111294
O	     11.66420      5.83131      7.39491        -0.012118      0.005597     -0.007587
O	      9.76790      7.79139      2.74933         0.006316     -0.001652      0.108112
O	     11.66518      9.73005      7.40223        -0.011524      0.005351     -0.010431
