# total energy = -657.75974227 eV
 
CRYSTAL
PRIMVEC
11.725024 -0.001499 -0.001836 
0.001582 7.793345 0.013843 
3.904918 3.874763 9.409350 
PRIMCOORD
76 1
Li	      9.77352      7.78893      9.38853        -0.001477     -0.000519     -0.015809
Li	      5.87088      7.78115      0.02370        -0.001050     -0.001125     -0.003501
Li	      3.89110      3.89109      2.45464         0.006155      0.004615      0.042599
Li	      9.77137      5.82943      6.97885        -0.006918      0.000917     -0.014538
Ti	      1.87879      1.90913      2.38740        -0.095370     -0.061020      0.063894
Ti	      3.90478      3.88047      7.05160        -0.010339     -0.003448      0.079763
Ti	      1.87578      5.87503      2.39827        -0.095592      0.058896      0.048853
Ti	      3.90855      7.78036      7.07559        -0.002687      0.000585      0.043055
Ti	      5.92031      1.91423      2.36773         0.072421     -0.044415      0.113369
Ti	      7.75645      3.83954      7.02286        -0.078868     -0.052943     -0.052165
Ti	      5.92629      5.86909      2.38694         0.075854      0.055949      0.098173
Ti	      7.75129      7.81664      7.02929        -0.100235      0.055600     -0.086537
Ti	      9.79063      1.94143      2.39116         0.032211      0.001835      0.044091
Ti	     11.79279      3.84001      7.03599         0.091424     -0.055896     -0.057043
Ti	      9.79263      5.84095      2.43993         0.033259      0.002571      0.007710
Ti	     11.79917      7.81594      7.02943         0.101244      0.055875     -0.084788
Ti	      3.89959      5.82642      9.37803        -0.001415     -0.006961     -0.052212
Ti	     13.66601      3.88814      4.71608        -0.008050      0.002564     -0.004865
Ti	     15.61873      9.72522      9.39459        -0.011283     -0.001665     -0.039343
Ti	      1.97680      7.78627      4.72317         0.040312     -0.011599     -0.019958
Ti	      3.78250      1.93851      0.00895        -0.160322     -0.001163      0.018354
Ti	      5.86322      3.88788      4.71704         0.015423     -0.003713      0.033375
Ti	      3.79360      5.85914      0.03768        -0.155576      0.003373      0.013002
Ti	      5.83504      7.78515      4.71798        -0.022967     -0.000604      0.030600
Ti	      7.93772      1.95376      0.00476         0.168954      0.006676      0.025045
Ti	      9.77221      3.85941      4.71748         0.003359     -0.039450     -0.112479
Ti	      7.93580      5.84352      0.03523         0.166859     -0.009212      0.023243
Ti	      9.77035      7.81031      4.73051        -0.002748      0.032289     -0.098038
O	      1.92658      1.93443      0.35506         0.131233      0.010433      0.015298
O	      3.90914      3.89300      5.01476        -0.001323      0.003502      0.043782
O	      1.92649      5.86274      0.37331         0.106971     -0.005130      0.030152
O	      3.91011      7.77859      5.06667        -0.005427      0.001742      0.059795
O	      5.86914      1.94594      0.31770         0.011598      0.005211      0.035644
O	      7.81424      3.87201      5.07923        -0.000216     -0.000962      0.114957
O	      5.87162      5.84871      0.36604         0.003556      0.003857      0.037206
O	      7.81128      7.79829      5.09226         0.018594      0.003590      0.135836
O	      9.79189      1.95516      0.36565        -0.133838     -0.004181      0.014539
O	     11.72389      3.87043      5.08725         0.005608      0.000041      0.109286
O	      9.79113      5.84002      0.39975        -0.106887     -0.000285      0.002611
O	     11.72812      7.79949      5.09509        -0.026077      0.001096      0.143831
O	      3.90417      2.01933      1.97839        -0.025818      0.001910     -0.094331
O	      5.85061      3.88375      6.68613         0.043983     -0.001370     -0.098825
O	      3.89802      5.76720      2.00234        -0.021378     -0.004466     -0.089346
O	      5.85106      7.77966      6.69411         0.054580     -0.007700     -0.063695
O	      7.83136      1.94922      1.98317        -0.045422     -0.002457     -0.087517
O	      9.76734      3.92961      6.74520         0.009547     -0.005143     -0.032047
O	      7.83843      5.83605      2.01375        -0.044376     -0.003749     -0.070793
O	      9.76704      7.73044      6.75667         0.009691      0.001369     -0.038940
O	     11.71735      1.94131      1.99632         0.042677     -0.002114     -0.021928
O	     13.69023      3.88751      6.70048        -0.058078     -0.001219     -0.077604
O	     11.71637      5.84396      2.01474         0.039839     -0.006846     -0.016128
O	     13.69236      7.77346      6.71301        -0.066657     -0.006378     -0.052624
O	      3.89146      3.87753      9.02325         0.005310      0.007081     -0.070372
O	      1.95077      1.93768      4.34354         0.015137     -0.004075     -0.078611
O	      3.90749      7.77666      9.04764         0.006361     -0.001399     -0.083943
O	      1.93638      5.84075      4.35641         0.013751      0.005369     -0.081885
O	      7.87278      3.87368      9.07193        -0.001269     -0.008382      0.006591
O	      5.86127      1.93664      4.31723        -0.015520     -0.002300     -0.102971
O	      7.86237      7.77846      9.09328        -0.004134     -0.006638      0.006619
O	      5.87418      5.83993      4.33841        -0.018284      0.009216     -0.093682
O	     11.67103      3.87305      9.06729         0.000928     -0.011985     -0.018489
O	      9.76839      1.93853      4.37217        -0.001240     -0.000065     -0.052907
O	     11.66908      7.77725      9.07376         0.006855      0.005276     -0.017660
O	      9.77259      5.83704      4.42643        -0.002017     -0.003364     -0.062741
O	      1.99290      3.89119      2.72346        -0.017031      0.006355      0.046727
O	      3.91124      5.83021      7.41425         0.000888     -0.002948      0.076187
O	      1.95846      7.78970      2.72548        -0.001027     -0.002450      0.045699
O	      3.90447      9.72749      7.42490         0.005629      0.007542      0.060760
O	      5.81622      3.89181      2.67096         0.008589     -0.004572     -0.005547
O	      7.87363      5.82983      7.42313        -0.005687      0.011803      0.047479
O	      5.86152      7.78831      2.66303        -0.002227      0.001130      0.006845
O	      7.80901      9.72429      7.43942         0.005936      0.007796      0.031768
O	      9.77964      3.89109      2.75902        -0.002119     -0.001874      0.108202
O	     11.66707      5.82819      7.42117         0.000553      0.011826      0.044179
O	      9.77333      7.78741      2.76544         0.002401      0.001424      0.103319
O	     11.73911      9.72443      7.43969         0.003260      0.006469      0.041422
