# total energy = -661.02096676 eV
 
CRYSTAL
PRIMVEC
11.825795 -0.000159 -0.007223 
0.002490 7.780855 0.018267 
3.935026 3.874673 9.367956 
PRIMCOORD
77 1
Li	      5.90743      3.88416      9.20847         0.002351     -0.000600     -0.006776
Li	     13.78563      3.89580      9.20046        -0.004025     -0.005397     -0.021214
Li	     11.82547      3.88490      2.62850        -0.006884      0.001308      0.041505
Li	     11.82594      7.77814      2.67590        -0.004539     -0.005105      0.008794
Li	     13.79520      9.68953      7.07566         0.000967      0.010119      0.025657
Ti	      2.09903      1.95199      2.38351         0.170937     -0.001546      0.051266
Ti	      4.01412      3.92231      6.97171         0.085714      0.057168     -0.086249
Ti	      2.10729      5.81957      2.36628         0.181361     -0.005255      0.074572
Ti	      4.02461      7.73700      7.00873         0.144673     -0.068964     -0.034167
Ti	      5.91352      1.94395      2.36814        -0.007589     -0.049079      0.103952
Ti	      7.89514      3.89101      7.00823         0.062530     -0.041766     -0.001919
Ti	      5.91823      5.83782      2.37942        -0.003699      0.029483      0.100156
Ti	      7.86520      7.77549      7.01784        -0.017046      0.029876      0.007064
Ti	      9.73491      1.95337      2.33644        -0.168663     -0.003874      0.098381
Ti	     11.74909      3.91919      6.94041        -0.112330      0.068715     -0.024453
Ti	      9.73810      5.82508      2.33031        -0.166572     -0.008799      0.106859
Ti	     11.77073      7.73516      6.93290        -0.106790     -0.069998      0.035907
Ti	     11.82818      2.00756      0.05574         0.025648      0.118624     -0.089788
Ti	     13.81882      3.90530      4.75661         0.013831      0.031623      0.005758
Ti	     11.84649      5.78042      0.05450         0.039188     -0.118057     -0.075263
Ti	      2.01859      7.74920      4.75398         0.066608     -0.011161      0.015484
Ti	      7.93291      5.85323      9.36216         0.087736      0.044737     -0.079803
Ti	      5.92698      3.88526      4.68570         0.022969     -0.042638     -0.139591
Ti	      7.93469      9.67799      9.35824         0.086954     -0.038050     -0.102039
Ti	      5.92215      7.77778      4.69017         0.020082      0.041732     -0.093613
Ti	     11.75008      5.85990      9.34145        -0.103505      0.027498     -0.051020
Ti	      9.78796      3.88623      4.71188        -0.042110     -0.033064      0.040435
Ti	     11.72891      9.67792      9.33937        -0.137773     -0.029657     -0.031419
Ti	      9.78304      7.77458      4.72329        -0.102178      0.036015      0.038345
O	      1.98099      1.86844      0.38787        -0.021748      0.004777      0.078673
O	      3.96087      3.88101      5.05649         0.049285      0.019938      0.184597
O	      1.98478      5.91795      0.38012        -0.036808     -0.000809      0.079825
O	      3.96439      7.76789      5.07175        -0.026535     -0.027721      0.135453
O	      5.90924      1.93319      0.34521        -0.011453      0.044934      0.058592
O	      7.85985      3.85770      5.03777        -0.023639      0.051926      0.133518
O	      5.90767      5.85512      0.34974         0.018213     -0.047297      0.038888
O	      7.86239      7.79351      5.04629         0.017452     -0.043411      0.107332
O	      9.84644      1.87794      0.34238         0.028256      0.005578      0.096420
O	     11.81664      3.88621      4.95309        -0.003463      0.019183      0.061562
O	      9.84691      5.90911      0.31012         0.027273      0.002795      0.069629
O	     11.81515      7.76034      4.95698         0.013240     -0.005188      0.104208
O	      3.96734      1.93355      2.00985        -0.096848      0.049617     -0.061865
O	      5.91938      3.87402      6.76284        -0.087364      0.032302     -0.042340
O	      3.97084      5.84680      2.01908        -0.117944     -0.047014     -0.058485
O	      5.91855      7.78163      6.71357        -0.062440     -0.028887     -0.068308
O	      7.85805      1.93172      1.97013         0.101198      0.057157     -0.076793
O	      9.84238      3.86081      6.66502         0.004378      0.030216     -0.079299
O	      7.86336      5.84900      1.96635         0.095502     -0.049331     -0.077067
O	      9.84407      7.78533      6.66119         0.050134     -0.026802     -0.143682
O	     11.82271      1.95286      2.04717         0.003800      0.028111     -0.096386
O	     13.79126      3.81826      6.72687         0.042204     -0.038867     -0.056889
O	     11.81754      5.82301      2.04393         0.000222     -0.018845     -0.099636
O	     13.79300      7.82162      6.68169        -0.016201      0.033795     -0.158500
O	      3.94076      3.88038      9.07688        -0.010789     -0.009813     -0.002429
O	      2.00282      1.93773      4.38140        -0.019604     -0.012719     -0.072976
O	      3.95251      7.76608      9.09122        -0.009800     -0.007966      0.029315
O	      2.00229      5.82596      4.36251        -0.017357     -0.002347     -0.057188
O	      7.82161      3.88061      9.01441         0.011217      0.008680     -0.052760
O	      5.90109      1.94136      4.33814         0.018661     -0.003823     -0.089013
O	      7.86692      7.76759      9.03661         0.026624     -0.004656     -0.029955
O	      5.92335      5.82943      4.34922         0.006469     -0.013445     -0.083916
O	     11.86261      3.88103      8.95345        -0.003618      0.012390     -0.025852
O	      9.81173      1.93696      4.30493         0.018394     -0.005496     -0.102561
O	     11.80189      7.76549      8.97234         0.000918     -0.007050     -0.016800
O	      9.79015      5.82895      4.30580         0.030983     -0.001185     -0.086508
O	      1.93308      3.88577      2.71520         0.013719      0.020878     -0.017517
O	      3.94140      5.82733      7.42300         0.009920      0.016890      0.037237
O	      1.92989      7.77516      2.70713         0.007158      0.007395      0.039777
O	      3.87817      9.71253      7.42606        -0.011666     -0.014221      0.066626
O	      5.92290      3.89015      2.72376        -0.003705      0.015300      0.074695
O	      7.90184      5.83096      7.38816        -0.026028      0.010702      0.081758
O	      5.92020      7.77872      2.72312         0.000928     -0.000608      0.098603
O	      7.89978      9.71379      7.40270        -0.024518     -0.027095      0.108794
O	      9.89004      3.88823      2.66467        -0.018611      0.011720     -0.020667
O	     11.80670      5.82805      7.33360         0.010865      0.025606      0.019798
O	      9.89746      7.77588      2.66034        -0.005650     -0.000150      0.012951
O	     11.87566      9.70941      7.34272         0.020932     -0.029031      0.042320
