# total energy = -661.00371494 eV
 
CRYSTAL
PRIMVEC
11.817177 -0.000123 -0.003001 
0.002535 7.782187 0.014960 
3.934199 3.871622 9.400187 
PRIMCOORD
77 1
Li	      5.91296      7.75434      9.27180        -0.006518     -0.001962     -0.023941
Li	      3.95153      5.83607      4.55863        -0.005584     -0.005328     -0.042987
Li	      5.91566      3.88587      9.33959         0.004388      0.005884     -0.037616
Li	     11.79799      3.87772      2.55556         0.007319      0.002210      0.019766
Li	     13.76549      9.71276      7.13103         0.005079      0.002751      0.036292
Ti	      2.04730      1.91958      2.35203         0.103796     -0.033539      0.077764
Ti	      3.98699      3.90090      7.01181         0.070747      0.053480     -0.005939
Ti	      2.01368      5.86428      2.34057         0.062459      0.042690      0.098962
Ti	      3.97045      7.74622      7.01373         0.046962     -0.055294     -0.017202
Ti	      5.91924      1.93984      2.37413         0.016291      0.025334      0.051632
Ti	      7.90324      3.87683      7.03601         0.028642      0.002092     -0.011246
Ti	      5.95591      5.83876      2.38177         0.056124     -0.024022      0.069909
Ti	      7.91391      7.77066      7.03226         0.053005     -0.009463     -0.019987
Ti	      9.78405      1.90932      2.37376        -0.091923     -0.049822      0.063460
Ti	     11.75769      3.91630      7.04118        -0.083474      0.101915      0.082068
Ti	      9.78676      5.86740      2.37417        -0.083155      0.049644      0.106003
Ti	     11.76127      7.72951      7.06872        -0.079553     -0.096863      0.052025
Ti	     11.69783      1.94176      0.03776        -0.176937      0.000769     -0.006005
Ti	     13.73801      3.86617      4.73703        -0.071990     -0.056384     -0.024740
Ti	     11.71945      5.85176      0.05392        -0.162670     -0.012162     -0.025444
Ti	     13.69713      7.79075      4.72613        -0.125471      0.042955     -0.032382
Ti	      4.05191      1.95172      0.01202         0.179329      0.023047     -0.013605
Ti	      5.95899      3.84792      4.72304         0.074429     -0.097279     -0.075977
Ti	      4.04584      5.83637      0.03533         0.168581     -0.029274     -0.063740
Ti	      5.96162      7.81032      4.74482         0.084036      0.087570     -0.082043
Ti	      7.87408      1.94584      0.01841        -0.001329      0.018285     -0.022183
Ti	      9.81331      3.88166      4.72081        -0.019649     -0.002515     -0.032755
Ti	      7.85094      5.84235      0.01397        -0.023501     -0.023937     -0.034570
Ti	      9.85178      7.77434      4.72430         0.034500     -0.007204     -0.045748
O	      1.98240      1.94932      0.35634        -0.006895     -0.022103      0.050457
O	      3.95063      3.96498      5.06293        -0.002752      0.061271      0.114103
O	      1.98430      5.83440      0.35376         0.001751      0.028339      0.062071
O	      3.94913      7.69466      5.07358         0.019118     -0.050043      0.128106
O	      5.92318      1.95861      0.37498        -0.111353     -0.026324      0.043389
O	      7.87082      3.87427      5.07880        -0.023575      0.010674      0.092575
O	      5.91942      5.82102      0.38674        -0.084104      0.029847      0.055122
O	      7.87773      7.78277      5.08602        -0.064276     -0.014321      0.117788
O	      9.82490      1.93910      0.34847         0.099236     -0.020918      0.050328
O	     11.80526      3.89442      4.98472         0.028094     -0.000700      0.051240
O	      9.82934      5.84287      0.31199         0.089641      0.031261      0.031068
O	     11.80261      7.76041      5.04534         0.042884      0.008818      0.063747
O	      3.95983      1.95129      2.01059        -0.052648     -0.026283     -0.081023
O	      5.91318      3.86890      6.76642        -0.041409      0.000152     -0.035584
O	      3.95629      5.82641      2.06563        -0.033749      0.031603     -0.077301
O	      5.91299      7.78059      6.77568        -0.035926      0.002223     -0.055379
O	      7.87381      1.94657      1.99554         0.044304     -0.022897     -0.073270
O	      9.85080      3.88679      6.69160         0.044550     -0.011329     -0.079515
O	      7.88280      5.82610      1.99733         0.008797      0.025806     -0.075593
O	      9.85265      7.76197      6.70388         0.021427      0.005528     -0.063420
O	     11.80083      2.02249      1.99060        -0.002329      0.013343     -0.110422
O	     13.76684      3.80821      6.68350        -0.018342     -0.054080     -0.102975
O	     11.79929      5.74842      2.00609         0.002542     -0.011660     -0.117128
O	     13.76840      7.83920      6.68558         0.010375      0.049897     -0.083765
O	      4.00781      3.87720      9.06947        -0.011785     -0.009436      0.020292
O	      1.97833      1.93605      4.36200         0.006218     -0.007911     -0.028881
O	      3.99605      7.76377      9.07934        -0.002405     -0.002090     -0.012184
O	      2.02850      5.83250      4.34596         0.012678      0.013090     -0.030457
O	      7.82198      3.87417      9.07768         0.008368     -0.011199      0.003078
O	      5.89483      1.93708      4.37891         0.006998     -0.010915     -0.023119
O	      7.82257      7.76511      9.08027         0.004960      0.002596     -0.007974
O	      5.86865      5.83193      4.37814         0.000404      0.006342     -0.044365
O	     11.78332      3.87744      9.01205         0.012618     -0.010747     -0.040819
O	      9.82880      1.93437      4.33781         0.004024      0.002349     -0.050701
O	     11.80110      7.76154      9.03356         0.011308      0.008109     -0.064069
O	      9.81194      5.83250      4.33035         0.010314      0.011091     -0.053131
O	      1.91725      3.88453      2.68488        -0.012452      0.005377      0.006158
O	      3.90548      5.82288      7.40286         0.012832      0.004228      0.022444
O	      1.95857      7.78192      2.67381        -0.006275     -0.011830     -0.013774
O	      3.85379      9.71365      7.42364        -0.003669      0.010594      0.031671
O	      5.93606      3.88416      2.75993        -0.005206      0.008335      0.063454
O	      7.90393      5.82287      7.43789        -0.006682     -0.004132      0.052952
O	      5.93382      7.78161      2.76365        -0.002235     -0.013186      0.041949
O	      7.92153      9.71400      7.46302        -0.018018      0.012837      0.050670
O	      9.88104      3.88541      2.71319        -0.002410      0.001258      0.050687
O	     11.82385      5.82115      7.39781        -0.009104     -0.003116      0.015606
O	      9.84990      7.77775      2.71041        -0.009644     -0.002198      0.017962
O	     11.86286      9.71490      7.40873        -0.000131      0.008873      0.048159
