# total energy = -89.94029607 eV
 
CRYSTAL
PRIMVEC
-0.000088 2.093475 -2.093474 
-0.000059 2.093492 2.093490 
16.777010 -0.000448 -0.000017 
PRIMCOORD
16 1
Li	      2.33250      2.09345     -0.00087        -0.058209     -0.000171      0.000103
Li	      4.40756      2.09260      2.09264         0.018297      0.000214      0.000048
Li	      6.24544      2.09216     -0.00088         0.059196     -0.000165     -0.000076
Li	     10.46697      2.09222     -0.00092        -0.042970      0.000992      0.000787
Mn	      0.02626      2.09385      2.09264         0.238397     -0.000418     -0.000703
Mn	      8.43773      4.18555     -0.00089        -0.028353      0.000086     -0.000238
Ni	     12.35201      2.09275      2.09258        -0.004204      0.000087      0.000278
Ni	     14.53811      2.09322     -0.00087         0.036808     -0.000476      0.000408
O	     14.71860      2.09328      2.09260         0.050405     -0.000690      0.000332
O	     16.63462      2.09341     -0.00089         0.049106      0.000066     -0.000754
O	     10.34164      4.18570     -0.00091        -0.122710      0.000224      0.000098
O	     12.53811      2.09279     -0.00090        -0.076196     -0.000354     -0.000122
O	      6.60068      4.18552     -0.00092        -0.006671      0.000103      0.000129
O	      8.44609      2.09204     -0.00090         0.019349      0.000591     -0.000132
O	      1.82204      2.09383      2.09267        -0.112432     -0.000307     -0.000150
O	      4.27540      2.09265     -0.00083        -0.019815      0.000217     -0.000008
