# total energy = -664.27973507 eV
 
CRYSTAL
PRIMVEC
11.945322 -0.002300 -0.007293 
0.001091 7.741735 0.016994 
3.971934 3.853935 9.304793 
PRIMCOORD
78 1
Li	     13.95133      3.85078      8.96781         0.002277      0.006394      0.023014
Li	     11.96536      1.92381      4.31541         0.002164      0.006385      0.022878
Li	      7.94980      3.88111      2.63256         0.001049     -0.005932      0.048899
Li	      9.93577      5.80808      7.28495         0.000963     -0.005868      0.048659
Li	      7.95476      7.72344      2.70030         0.002783      0.001718      0.000391
Li	      9.94073      9.65040      7.35269         0.002679      0.001657      0.000153
Ti	      2.03099      1.94230      2.29895         0.057621     -0.003607     -0.032348
Ti	      4.01695      3.86927      6.95135         0.057918     -0.003592     -0.032448
Ti	      1.98815      5.79974      2.33159         0.020418     -0.015148      0.018679
Ti	      3.97411      7.72671      6.98398         0.020562     -0.015169      0.018519
Ti	      5.87276      1.93279      2.25538        -0.163122     -0.009590      0.017604
Ti	      7.85873      3.85975      6.90777        -0.163180     -0.009577      0.017154
Ti	      5.85808      5.80566      2.26225        -0.155262     -0.005133      0.037620
Ti	      7.84405      7.73262      6.91465        -0.155317     -0.005131      0.037254
Ti	     10.03360      1.94410      2.26149         0.116869      0.021581     -0.023362
Ti	     12.01957      3.87107      6.91389         0.116850      0.021555     -0.023651
Ti	     10.09755      5.80133      2.30885         0.173861     -0.023654      0.002110
Ti	     12.08352      7.72830      6.96125         0.173950     -0.023624      0.001769
Ti	      0.05854      1.96616      0.03772         0.088722      0.045457     -0.061384
Ti	      2.04451      3.89313      4.69012         0.088731      0.045432     -0.061617
Ti	      4.03260      9.63911      9.31672         0.087291     -0.036527     -0.081124
Ti	      2.04664      7.71214      4.66432         0.087276     -0.036480     -0.081220
Ti	      3.92207      1.94131      0.00911        -0.073461     -0.038858      0.028894
Ti	      5.90803      3.86828      4.66151        -0.073206     -0.038862      0.028972
Ti	      3.90653      5.81076      0.02078        -0.084789      0.023075      0.022959
Ti	      5.89250      7.73773      4.67317        -0.084594      0.023099      0.023047
Ti	      7.93409      1.96298      0.06712        -0.027574      0.052359     -0.035034
Ti	      9.92006      3.88995      4.71951        -0.027653      0.052359     -0.035212
Ti	      7.95274      5.78661      0.08606        -0.023084     -0.036121      0.000192
Ti	      9.93870      7.71358      4.73846        -0.023153     -0.036117      0.000033
O	      1.98084      1.92150      0.33569        -0.032555      0.026738      0.075575
O	      3.96680      3.84847      4.98809        -0.032824      0.026755      0.075577
O	      1.97974      5.81119      0.35143        -0.029564     -0.012753      0.084818
O	      3.96571      7.73816      5.00382        -0.029642     -0.012765      0.084790
O	      5.96110      1.93147      0.24117         0.044050      0.016677      0.063139
O	      7.94706      3.85844      4.89357         0.043766      0.016695      0.062973
O	      5.96037      5.80582      0.26593         0.026687      0.000300      0.065073
O	      7.94633      7.73279      4.91833         0.026466      0.000269      0.064944
O	      9.97410      1.83576      0.32940         0.002880     -0.021651      0.149972
O	     11.96006      3.76273      4.98180         0.003307     -0.021596      0.150281
O	      9.97634      5.89681      0.36396         0.006769      0.009001      0.130397
O	     11.96231      7.82378      5.01635         0.007048      0.008958      0.130679
O	      3.97537      1.91418      1.97348         0.055471      0.028930     -0.071926
O	      5.96133      3.84115      6.62587         0.055305      0.028912     -0.071615
O	      3.96396      5.81516      1.97860         0.077683     -0.006014     -0.108829
O	      5.94992      7.74213      6.63099         0.077561     -0.006016     -0.108602
O	      7.95068      1.92849      2.02924         0.007198      0.004004     -0.084052
O	      9.93665      3.85546      6.68163         0.007601      0.003972     -0.083490
O	      7.95008      5.80472      2.03423         0.001850      0.006357     -0.112909
O	      9.93605      7.73169      6.68663         0.002142      0.006366     -0.112377
O	     11.95981      1.93422      2.08367        -0.079383      0.012455     -0.028547
O	     13.94578      3.86119      6.73607        -0.079709      0.012443     -0.028532
O	     11.97010      5.79697      2.02718        -0.120775      0.003137     -0.064194
O	     13.95607      7.72393      6.67957        -0.121046      0.003147     -0.064041
O	      3.93970      3.85751      8.97401         0.014940     -0.020670     -0.000537
O	      1.95373      1.93054      4.32161         0.015033     -0.020613     -0.000462
O	      3.96665      7.72417      8.99877         0.003897      0.004909     -0.023939
O	      1.98068      5.79720      4.34637         0.003917      0.004845     -0.023870
O	      7.90363      3.85533      8.89693         0.008316     -0.013925     -0.011180
O	      5.91766      1.92836      4.24453         0.008303     -0.014029     -0.011320
O	      7.89955      7.72491      8.91491         0.005544      0.011899     -0.035612
O	      5.91359      5.79794      4.26251         0.005543      0.012011     -0.035699
O	     12.00351      3.85449      8.97882         0.014737     -0.022818      0.028853
O	     10.01754      1.92752      4.32642         0.014590     -0.022917      0.029024
O	     11.98092      7.72549      9.01245         0.014983      0.012808     -0.009121
O	      9.99495      5.79852      4.36006         0.014917      0.012887     -0.008921
O	      2.02214      3.86959      2.70673        -0.010665      0.012580      0.007400
O	      4.00811      5.79655      7.35912        -0.010675      0.012628      0.007497
O	      2.00900      7.73618      2.70362        -0.010584     -0.017443      0.054994
O	      3.99497      9.66315      7.35601        -0.010600     -0.017470      0.055140
O	      6.01802      3.86879      2.61721        -0.018176      0.003226     -0.026885
O	      8.00399      5.79576      7.26961        -0.018111      0.003242     -0.026520
O	      6.02325      7.73550      2.63521        -0.015455     -0.009250     -0.018207
O	      8.00921      9.66247      7.28761        -0.015381     -0.009270     -0.017944
O	      9.88727      3.87127      2.66295         0.001845     -0.000469     -0.023281
O	     11.87324      5.79823      7.31535         0.001744     -0.000395     -0.022902
O	      9.89329      7.73516      2.68676         0.006775     -0.004058     -0.008655
O	     11.87926      9.66213      7.33916         0.006685     -0.004109     -0.008359
