# total energy = -664.38567790 eV
 
CRYSTAL
PRIMVEC
11.934078 -0.000180 -0.006930 
0.002509 7.745512 0.010833 
3.970298 3.849283 9.278133 
PRIMCOORD
78 1
Li	      7.93830      5.84292      4.33437        -0.001395     -0.010626     -0.012594
Li	     11.93205      5.81472      4.33528        -0.002586     -0.001356     -0.028279
Li	     13.94796      3.85094      9.00893         0.002777     -0.007905     -0.051606
Li	      7.95410      3.80065      2.59492        -0.004132      0.009506      0.040231
Li	      9.92795      5.81339      7.30245         0.002386     -0.002560     -0.016709
Li	      9.92941      9.64965      7.36655         0.003025      0.002692     -0.004901
Ti	      1.98247      1.93301      2.31735         0.020626      0.021074      0.068325
Ti	      4.01359      3.83823      6.95452         0.032743     -0.007938      0.012630
Ti	      2.05037      5.79800      2.28062         0.182104      0.003001      0.050807
Ti	      3.97527      7.74264      6.96194         0.024756     -0.001733      0.019114
Ti	      5.90354      1.88611      2.23658        -0.109378     -0.085616      0.125880
Ti	      7.83129      3.83297      6.92672        -0.133924     -0.023406      0.121779
Ti	      5.91955      5.82383      2.14176        -0.060654      0.043671      0.032976
Ti	      7.81060      7.75990      6.95213        -0.154796      0.035533      0.057536
Ti	     10.04967      1.89518      2.28151         0.117740     -0.035839      0.041950
Ti	     12.01897      3.82517      6.93522         0.096295     -0.054898     -0.047683
Ti	      9.98086      5.81481      2.23313        -0.024550      0.062156     -0.038287
Ti	     12.06945      7.75400      6.96911         0.153415      0.039485     -0.024067
Ti	      0.06462      1.97425      0.00960         0.099787      0.073000     -0.106385
Ti	      2.03140      3.84021      4.66187         0.054163     -0.030136     -0.092816
Ti	      0.06922      5.78052      0.08087         0.107645     -0.058582     -0.159016
Ti	      2.03989      7.74898      4.64569         0.084724      0.018016     -0.078977
Ti	      3.91103      1.94029      0.03203        -0.114563      0.001681      0.052294
Ti	      5.85706      3.87010      4.59569        -0.144066      0.053069     -0.029650
Ti	      3.96476      5.81595      0.11452         0.044467      0.004277     -0.003740
Ti	      5.89182      7.74379      4.60813        -0.103467     -0.015336     -0.025993
Ti	      7.94045      1.95941      0.08074        -0.006149      0.033013      0.054050
Ti	      9.95548      3.81378      4.70205         0.055886     -0.046575     -0.040905
Ti	      7.91721      5.79961      0.17405        -0.094959     -0.038267     -0.028085
Ti	      9.92990      7.78629      4.71856         0.010957      0.050256     -0.044360
O	      1.97908      1.94619      0.33822        -0.026018     -0.001486      0.081125
O	      3.95602      3.89442      4.97625         0.035553     -0.045312      0.088369
O	      1.97039      5.81258      0.32687        -0.112682      0.000111      0.163603
O	      3.96560      7.71893      4.98238        -0.008253      0.031341      0.067296
O	      5.96034      1.93118      0.23849         0.078199     -0.002091      0.068025
O	      7.94288      3.94462      4.88718         0.028189     -0.020392      0.046810
O	      5.95336      5.82746      0.12860         0.018726      0.004185      0.047899
O	      7.93882      7.66411      4.97016         0.042291      0.012562      0.057500
O	      9.97017      1.85434      0.34254        -0.021021     -0.024897      0.139941
O	     11.94444      3.95619      4.98598        -0.028454      0.003510      0.106201
O	      9.98736      5.89875      0.31580         0.041416      0.017776      0.214554
O	     11.94430      7.65455      5.01660        -0.024189      0.005780      0.081219
O	      3.97077      1.92338      1.96804         0.047382     -0.002210     -0.149951
O	      5.94904      3.86665      6.57813         0.087859     -0.018369     -0.066396
O	      3.96362      5.79989      2.07651        -0.090450      0.003826     -0.124051
O	      5.93472      7.73027      6.59647         0.113273      0.016446     -0.030357
O	      7.94758      1.98785      1.99916         0.014406      0.017074     -0.198713
O	      9.92178      3.84776      6.66704        -0.008112     -0.007369     -0.087987
O	      7.97666      5.72720      2.17598         0.054352     -0.017789     -0.062086
O	      9.93077      7.74472      6.67608        -0.003834      0.018356     -0.086644
O	     11.95248      1.93961      2.00996        -0.092906     -0.022169     -0.089240
O	     13.93615      3.86001      6.71037        -0.083237     -0.011720     -0.008102
O	     11.94403      5.78566      2.08090        -0.028367     -0.007450     -0.088496
O	     13.94555      7.73065      6.64849        -0.126346      0.014558     -0.039413
O	      3.94340      3.85286      8.95328         0.002725     -0.014495      0.007887
O	      1.97457      1.92859      4.32100         0.011776      0.000768      0.005931
O	      3.96695      7.72916      8.96704        -0.001147      0.009398      0.034858
O	      1.92714      5.80021      4.32458         0.007955      0.016575     -0.011812
O	      7.89493      3.85419      8.89949         0.009610     -0.000445     -0.057998
O	      5.92441      1.92667      4.22766         0.002608     -0.002731     -0.010453
O	      7.90968      7.72981      8.92853         0.007802      0.002485     -0.050568
O	      5.97537      5.80554      4.26448         0.026337     -0.021106      0.032169
O	     12.01148      3.85027      8.97347        -0.036953      0.022680      0.024056
O	      9.96279      1.92495      4.33933        -0.016672     -0.017275      0.065624
O	     11.97644      7.73406      9.00593        -0.017396     -0.030043      0.032386
O	      9.96229      5.80393      4.36417        -0.017060     -0.008732      0.017225
O	      2.01830      3.85954      2.69667        -0.029096     -0.011966      0.025418
O	      3.99342      5.79549      7.33032        -0.003155      0.008299      0.062558
O	      2.00429      7.74259      2.68237        -0.017190     -0.003311      0.047685
O	      4.00125      9.66473      7.33943        -0.013484      0.012540      0.014287
O	      6.00741      3.86471      2.59707         0.018551     -0.019127     -0.013165
O	      7.98855      5.79429      7.26762        -0.006262     -0.001756     -0.022083
O	      5.97248      7.73322      2.59835         0.000707      0.049164     -0.032248
O	      7.97021      9.66996      7.24596        -0.029665     -0.007450     -0.039447
O	      9.89968      3.85239      2.67882         0.009425     -0.005518     -0.021934
O	     11.86960      5.79666      7.31739         0.008096      0.015467      0.008610
O	      9.95267      7.73679      2.68286         0.003759      0.009755     -0.033357
O	     11.88442      9.66586      7.30715         0.032075      0.002893     -0.060252
