# total energy = -667.66879912 eV
 
CRYSTAL
PRIMVEC
11.676240 -0.003136 0.018060 
0.000556 7.965227 0.017457 
3.902100 3.966122 9.259430 
PRIMCOORD
79 1
Li	      9.73649      3.97473      0.36528         0.008786     -0.005582      0.031206
Li	     11.68579      5.95555      5.00861         0.014085     -0.004303      0.026439
Li	      9.75841      7.96681      0.08281         0.007374      0.001032      0.048327
Li	     11.72258      9.95135      4.98817         0.009401     -0.002190     -0.021306
Li	      7.74557      7.96348      1.97080        -0.029031      0.007905      0.020094
Li	      9.65884      9.94844      6.65223        -0.019307     -0.001949     -0.023688
Li	     11.70110      7.95966      2.31276         0.017854      0.000596     -0.024587
Ti	      2.01088      2.04272      2.35824         0.141030      0.056395     -0.057716
Ti	      3.93461      3.97737      6.97780         0.082002     -0.014974     -0.019702
Ti	      2.01499      5.92018      2.36309         0.139443     -0.061734     -0.045546
Ti	      3.91960      7.95536      6.96697         0.072721     -0.000296      0.004885
Ti	      5.84118      2.04132      2.36018        -0.071633      0.041166      0.068622
Ti	      7.77845      4.02757      6.98343        -0.095534      0.051525      0.144714
Ti	      5.82771      5.92146      2.36022        -0.123187     -0.053486      0.088809
Ti	      7.75007      7.90621      7.00108        -0.130077     -0.061752      0.181749
Ti	      9.67334      2.04719      2.45500        -0.040996      0.114315     -0.096524
Ti	     11.61948      4.01108      7.07484         0.002745      0.122361     -0.077690
Ti	      9.67943      5.90789      2.43074        -0.006694     -0.133631     -0.051313
Ti	     11.66439      7.91571      7.05894         0.061191     -0.121696     -0.023066
Ti	      3.95875      5.98422      9.25676         0.147536      0.020717     -0.100647
Ti	      1.99566      3.97747      4.70012         0.192289      0.002410     -0.089762
Ti	      3.96412      9.91515      9.25395         0.152625     -0.010570     -0.094483
Ti	      2.01709      7.95386      4.65196         0.229490      0.007721     -0.065032
Ti	      7.80770      5.95524      9.25859        -0.012372      0.004226     -0.022151
Ti	      5.85136      3.97500      4.63163         0.000577     -0.004909     -0.045061
Ti	      7.79110      9.94628      9.23410        -0.046202      0.007658     -0.034759
Ti	      5.83667      7.95657      4.60162        -0.045365      0.015565     -0.045914
Ti	     11.62429      5.98604      9.12011        -0.112176      0.057629      0.103342
Ti	      9.66625      3.99271      4.50153        -0.137044      0.036046      0.068883
Ti	     11.63229      9.90569      9.14480        -0.080413     -0.063949      0.138118
Ti	      9.65339      7.92107      4.58363        -0.140864     -0.050090      0.107606
O	      1.95598      2.01557      0.38078        -0.069926     -0.007043      0.056689
O	      3.90027      3.97184      5.01015        -0.093648      0.002466      0.079423
O	      1.96085      5.95331      0.37573        -0.066367     -0.000751      0.041881
O	      3.90593      7.96130      4.98413        -0.084191     -0.016111      0.052456
O	      5.84606      1.99782      0.31984         0.096615      0.011156     -0.033233
O	      7.79123      3.98152      4.94125         0.122571      0.007031     -0.029130
O	      5.84199      5.96637      0.30396         0.153724     -0.017917     -0.037420
O	      7.78002      7.94545      4.93927         0.171024     -0.012735     -0.046994
O	      9.73846      1.98354      0.32407        -0.015057     -0.007049      0.005785
O	     11.68209      3.97160      4.97184        -0.022165     -0.007270      0.048241
O	      9.73945      5.97719      0.31627        -0.035857      0.008422      0.008177
O	     11.68201      7.95187      4.91540        -0.025953      0.008567      0.005848
O	      3.90808      1.98695      1.99707        -0.036299      0.020315     -0.040420
O	      5.85377      3.97768      6.61591         0.001746      0.006429     -0.054557
O	      3.90677      5.97549      1.99186        -0.029048     -0.020338     -0.011680
O	      5.84362      7.95287      6.61307         0.014601     -0.007718     -0.035703
O	      7.78489      1.94305      2.00872         0.084300     -0.002984      0.031138
O	      9.71360      3.93066      6.63926         0.063800      0.002473      0.012868
O	      7.77997      6.01577      2.00197         0.082857      0.010735     -0.018211
O	      9.71983      7.99558      6.62948         0.035765      0.013554     -0.022364
O	     11.67674      1.91561      2.05410        -0.066927     -0.010784     -0.003067
O	     13.62790      3.96583      6.70789        -0.043627      0.011782     -0.059272
O	     11.68195      6.04098      2.04785        -0.066787      0.013004     -0.023773
O	     13.62765      7.95842      6.65959        -0.063517     -0.004544     -0.044305
O	      3.87415      3.96965      8.99909        -0.016388     -0.004854     -0.023065
O	      1.89156      1.99131      4.34283        -0.039154      0.019215      0.013662
O	      3.83615      7.95072      8.98076        -0.017971      0.004116     -0.023892
O	      1.88777      5.96047      4.35092        -0.042955     -0.017272      0.019332
O	      7.78503      3.97477      8.92139         0.025656      0.010172     -0.124875
O	      5.84136      1.99060      4.28985         0.017783      0.014157     -0.108221
O	      7.79094      7.94534      8.92481         0.024297     -0.005896     -0.140362
O	      5.82972      5.96018      4.28933         0.026273     -0.001914     -0.101221
O	     11.75954      3.96029      9.08060        -0.071219     -0.069436     -0.126503
O	      9.81771      1.96789      4.46351        -0.048831     -0.031028     -0.086344
O	     11.78756      7.95362      9.04608        -0.085943      0.071211     -0.130115
O	      9.82896      5.97231      4.41857        -0.055243      0.049522     -0.117687
O	      1.96536      3.98088      2.69943        -0.016707     -0.000200      0.043579
O	      3.92529      5.96352      7.32106        -0.012723      0.004888      0.105705
O	      1.92145      7.96113      2.69331        -0.038213      0.003512      0.063820
O	      3.93196      9.94646      7.32575        -0.010024     -0.004813      0.117223
O	      5.84649      3.98018      2.65146         0.017203     -0.004962      0.077911
O	      7.78308      5.96464      7.28805         0.027892      0.000647      0.047706
O	      5.91315      7.96024      2.65073         0.027450      0.005609      0.085928
O	      7.83784      9.94458      7.28574         0.032298     -0.000577      0.065629
O	      9.72655      3.97688      2.45465        -0.010891      0.009856      0.083541
O	     11.64757      5.96090      7.09643        -0.013045     -0.009478      0.063602
O	      9.70328      7.96067      2.55616        -0.004741      0.001475      0.079336
O	     11.58234      9.94690      7.13710        -0.010692     -0.000797      0.139087
