# total energy = -667.62571868 eV
 
CRYSTAL
PRIMVEC
11.940662 -0.001228 0.003818 
0.001816 7.840077 0.014733 
3.980752 3.901344 9.193524 
PRIMCOORD
79 1
Li	      4.00251      1.95525      4.38274         0.003642      0.000131     -0.030821
Li	     13.89828      3.90140      9.13001         0.006543      0.005832     -0.001793
Li	     11.93005      1.95455      4.48083         0.005747      0.000661     -0.013436
Li	     11.94273      3.94380      2.21333         0.000552     -0.003395      0.036627
Li	     13.92112      5.89487      7.03590        -0.008176     -0.002663      0.032787
Li	     11.93953      7.80245      2.37221         0.001127      0.001505      0.033336
Li	     13.91713      9.75172      7.10398         0.001113      0.003403      0.015938
Ti	      2.07601      1.95614      2.24069         0.223443      0.012631     -0.102069
Ti	      4.15402      3.92400      6.94485         0.251902     -0.036629      0.020750
Ti	      2.12809      5.87544      2.31977         0.166026      0.026242     -0.053014
Ti	      4.15452      7.81639      6.98353         0.235790      0.040062     -0.019732
Ti	      5.97533      1.95849      2.25560        -0.045308      0.016996     -0.148802
Ti	      7.96257      3.95239      6.96218         0.015595      0.039434      0.084782
Ti	      5.95750      5.87714      2.32480        -0.006980      0.020153      0.018045
Ti	      7.97134      7.78743      6.97012         0.022676     -0.033311      0.060734
Ti	      9.84528      1.97957      2.23824        -0.255478      0.007452      0.056757
Ti	     11.80242      3.93533      6.86441        -0.174666      0.027891      0.052082
Ti	      9.85531      5.85788      2.21737        -0.148582     -0.013301      0.080518
Ti	     11.82157      7.80281      6.84142        -0.177710     -0.025065      0.051472
Ti	      0.10527      1.98586      0.00940         0.288708     -0.019598     -0.008525
Ti	      2.03594      3.95758      4.67291         0.099843      0.029663     -0.052550
Ti	      4.12943      9.76063      9.19766         0.191212      0.034722     -0.056198
Ti	      2.06747      7.78767      4.66754         0.094659     -0.021344     -0.013450
Ti	      4.00910      1.95951      0.11645         0.066514      0.022524      0.108425
Ti	      6.03379      3.92872      4.58915         0.075430     -0.026550     -0.094643
Ti	      7.99895      9.78316      9.18158         0.031951      0.025570     -0.085864
Ti	      6.02756      7.82134      4.59936         0.056430      0.030192     -0.101207
Ti	      7.85542      2.00491      0.03670        -0.295010      0.048357      0.092361
Ti	      9.83824      3.95319      4.59841        -0.164718      0.024385     -0.031010
Ti	     11.82664      9.74646      9.19749        -0.174254     -0.046092      0.073774
Ti	      9.82821      7.79869      4.58674        -0.157436     -0.019320      0.000944
O	      1.99447      1.93942      0.28845        -0.167621     -0.009082     -0.025846
O	      3.99159      3.82652      4.95731        -0.062477      0.022548      0.046410
O	      2.02971      5.89342      0.35976        -0.108064     -0.014514      0.046283
O	      4.00500      7.91558      4.96444        -0.060465     -0.020242      0.042477
O	      5.97057      1.93942      0.26173         0.090152     -0.006707     -0.097941
O	      7.95332      3.89326      4.92548         0.042571      0.038631      0.036059
O	      5.95312      5.89581      0.33322         0.078757     -0.011421      0.005065
O	      7.94913      7.84640      4.94105         0.036334     -0.028062      0.020071
O	      9.94812      1.89813      0.26630         0.058706     -0.002072      0.066069
O	     11.93520      3.84622      4.90029         0.019332      0.009902      0.111450
O	      9.92407      5.93701      0.25626        -0.010697     -0.009208      0.052910
O	     11.92783      7.89413      4.87556         0.019994     -0.015896      0.102134
O	      3.99277      1.94972      2.16383        -0.111301      0.004098      0.081871
O	      6.00120      3.89083      6.61715        -0.174461      0.044405     -0.005956
O	      3.99687      5.88741      2.03903        -0.134263     -0.030352     -0.024789
O	      5.99921      7.83963      6.63322        -0.179896     -0.032569     -0.011550
O	      7.96202      1.96975      1.99585         0.183483      0.012131      0.010401
O	      9.91962      3.90393      6.56708         0.134313      0.022250     -0.071040
O	      7.94331      5.86699      1.95910         0.088894     -0.018867     -0.100362
O	      9.92527      7.82632      6.55344         0.092254     -0.020771     -0.063070
O	     11.92977      1.94915      2.05839        -0.021954      0.013956     -0.040524
O	     13.91827      3.91192      6.66179        -0.002049      0.018854     -0.065064
O	     11.93582      5.88541      1.99102         0.016095     -0.017730     -0.069773
O	     13.91596      7.82308      6.62232        -0.001418     -0.010924     -0.097233
O	      3.92345      3.89831      8.95818        -0.041544      0.026424      0.026426
O	      1.99691      1.95349      4.35490        -0.050803     -0.011578      0.034220
O	      3.98711      7.82866      9.01808        -0.056007     -0.048569     -0.030711
O	      2.02988      5.87108      4.36606        -0.031764     -0.010107      0.001005
O	      7.96788      3.91098      8.90984         0.020288     -0.038370     -0.053101
O	      5.94179      1.95396      4.29442         0.017266     -0.010570      0.012115
O	      7.97557      7.81227      8.92403         0.014400      0.033781     -0.045816
O	      5.97381      5.87263      4.30114         0.013849     -0.007110     -0.055489
O	     11.96420      3.90468      8.84283         0.019538     -0.019165     -0.051620
O	      9.98724      1.95130      4.22796         0.016145      0.005365     -0.040224
O	     11.89055      7.82373      8.84277         0.024333      0.032031     -0.038691
O	      9.90786      5.87435      4.23211         0.033772     -0.009916     -0.022794
O	      1.91287      3.91856      2.65242         0.007228      0.018157      0.039521
O	      3.90246      5.86555      7.20439        -0.004397      0.054274      0.055736
O	      1.92388      7.83331      2.65632         0.006475     -0.015562      0.043197
O	      3.90384      9.79036      7.21952         0.007021     -0.057551      0.015349
O	      5.97725      3.91848      2.63886        -0.007227      0.013131      0.058222
O	      7.96819      5.86696      7.26441        -0.006513     -0.005116     -0.050939
O	      5.99383      7.83539      2.65169        -0.015322     -0.024307      0.070180
O	      7.97935      9.78329      7.27376        -0.008314     -0.009998      0.130831
O	     10.02197      3.92376      2.57711         0.006191     -0.008724     -0.005502
O	     11.98604      5.87163      7.17981        -0.017405      0.001340     -0.042933
O	      9.99546      7.82898      2.55805         0.009393     -0.000950     -0.009829
O	     11.97277      9.78188      7.17434        -0.013410     -0.015806      0.006573
