# total energy = -667.67918300 eV
 
CRYSTAL
PRIMVEC
11.871956 -0.000755 -0.006799 
0.002119 7.888273 0.014463 
3.949482 3.925083 9.209631 
PRIMCOORD
79 1
Li	     13.81158      7.87117      9.19701         0.001845     -0.000461     -0.033962
Li	     11.84344      5.90842      4.60010        -0.001971      0.001425     -0.023005
Li	     13.81097      3.92720      9.19021        -0.000329      0.000752     -0.034562
Li	     11.88429      3.92436      2.31595        -0.002799      0.001273      0.007296
Li	     13.86028      5.90314      6.84093         0.005335     -0.000571     -0.020555
Li	     11.88556      7.90128      2.32363        -0.004437      0.001049      0.003504
Li	     13.86200      9.84753      6.76573         0.011986      0.001267     -0.044067
Ti	      2.13036      1.96812      2.43228         0.202943      0.001762      0.068832
Ti	      4.10684      3.93061      6.96672         0.164016      0.019425     -0.033207
Ti	      2.13461      5.91232      2.39940         0.196568      0.002821      0.040942
Ti	      4.10716      7.87362      6.97341         0.167680     -0.009596     -0.030966
Ti	      5.93604      1.96758      2.35432        -0.026444      0.004378      0.064291
Ti	      7.91108      3.92996      6.94557         0.006721      0.016419      0.067516
Ti	      5.92787      5.91217      2.36450        -0.011698      0.001650      0.100348
Ti	      7.91185      7.87136      6.95196         0.005864     -0.001423      0.070322
Ti	      9.78514      1.96943      2.26226        -0.120604     -0.000062      0.066679
Ti	     11.76206      3.90754      6.82792        -0.121100     -0.009875     -0.047590
Ti	      9.76512      5.91357      2.29034        -0.128917     -0.000452      0.066754
Ti	     11.76305      7.90054      6.83485        -0.123381      0.010707     -0.046402
Ti	      0.17512      1.97358      0.02902         0.220445     -0.002639     -0.018482
Ti	      2.10048      3.90499      4.61958         0.155115     -0.080862     -0.129500
Ti	      0.14744      5.91748      0.04035         0.174993     -0.001260     -0.044422
Ti	      2.10117      7.91146      4.62669         0.156416      0.081223     -0.132913
Ti	      7.90868      5.90004      9.19215        -0.033043     -0.006598     -0.041607
Ti	      5.94737      3.93479      4.58485         0.039964      0.008574     -0.067500
Ti	      7.91213      9.84362      9.18958         0.002224     -0.003704     -0.039489
Ti	      5.94791      7.88252      4.59222         0.041323     -0.010226     -0.067909
Ti	     11.70568      5.90058      9.16338        -0.166037     -0.007259      0.026632
Ti	      9.76442      3.89696      4.57991        -0.128449     -0.053726      0.055551
Ti	     11.70705      9.84452      9.18890        -0.172510     -0.002564      0.017187
Ti	      9.76514      7.92199      4.58712        -0.127404      0.047981      0.054097
O	      2.01724      1.97238      0.37770        -0.129572      0.000838     -0.041522
O	      3.98279      3.95108      4.98505        -0.082394     -0.017571      0.059999
O	      2.00549      5.91626      0.38371        -0.126458     -0.000218      0.001293
O	      3.98357      7.86424      4.99152        -0.085319      0.008701      0.066640
O	      5.90578      1.97340      0.31883         0.102009      0.000694      0.012686
O	      7.89132      3.94553      4.91816         0.062170     -0.004295      0.006532
O	      5.90841      5.91779      0.31777         0.105470     -0.001429      0.002886
O	      7.89200      7.87042      4.92472         0.067305      0.004755      0.011899
O	      9.86816      1.97380      0.26594        -0.026284     -0.001935      0.036805
O	     11.85673      3.99453      4.88058        -0.012553      0.000640      0.105768
O	      9.88236      5.91772      0.29333        -0.020161     -0.000073      0.059311
O	     11.85761      7.82182      4.88713        -0.009688     -0.005578      0.107867
O	      3.97288      1.96884      2.02482        -0.095234      0.002812     -0.015270
O	      5.95444      3.94283      6.62738        -0.139823     -0.015311     -0.018560
O	      3.97640      5.91265      2.01888        -0.120248      0.001155      0.010396
O	      5.95498      7.86244      6.63421        -0.138242      0.019009     -0.021030
O	      7.88319      1.96986      1.93348         0.060702     -0.002054     -0.068022
O	      9.86326      3.92613      6.54708         0.070528     -0.006233     -0.048863
O	      7.87952      5.91485      1.95572         0.089104     -0.004929     -0.064360
O	      9.86396      7.88125      6.55404         0.076295      0.006101     -0.050008
O	     11.87322      1.96925      2.00572        -0.019836      0.000459     -0.061700
O	     13.84939      3.93328      6.65121         0.000522      0.019135      0.011199
O	     11.87620      5.91301      2.05177        -0.014508      0.000429     -0.030669
O	     13.85034      7.87308      6.65840        -0.001324     -0.013814      0.009703
O	      3.89538      3.92818      9.00639         0.020616     -0.008146      0.006600
O	      2.00194      1.96448      4.46703        -0.024470     -0.000300      0.057199
O	      3.89626      7.86967      9.01330         0.019717      0.003308      0.007347
O	      1.93229      5.90875      4.41167        -0.021494     -0.002294      0.003639
O	      7.90735      3.92612      8.88580         0.011602     -0.004035     -0.072052
O	      5.93183      1.96470      4.29546         0.014443      0.000034     -0.089607
O	      7.90818      7.87186      8.89264         0.012790      0.003280     -0.068146
O	      5.93414      5.90900      4.29370         0.002671     -0.001242     -0.099804
O	     11.89160      3.92903      8.84598        -0.007529     -0.004397     -0.013321
O	      9.85506      1.96576      4.23707         0.000558      0.000261     -0.008796
O	     11.89223      7.87195      8.85301        -0.005889      0.002464     -0.011786
O	      9.92800      5.90991      4.24566        -0.012009     -0.002750     -0.049911
O	      1.90947      3.94778      2.64886         0.011844      0.036894      0.009658
O	      3.88761      5.90202      7.26042         0.014365      0.001845      0.018277
O	      1.91066      7.87621      2.65565         0.012380     -0.033313      0.010295
O	      3.88705      9.84598      7.26916         0.018657      0.004527      0.010144
O	      5.93290      3.93785      2.64844         0.000704      0.018302      0.082887
O	      7.92203      5.90189      7.25144         0.001355      0.004395      0.082673
O	      5.93341      7.88604      2.65548         0.001647     -0.008445      0.081303
O	      7.91007      9.84587      7.25180         0.001729      0.006364      0.084930
O	      9.93476      3.93772      2.53249        -0.020011      0.013230     -0.013673
O	     11.91062      5.90359      7.14516        -0.007569     -0.002506      0.016802
O	      9.93649      7.88866      2.53969        -0.023066     -0.020682     -0.012969
O	     11.92959      9.84770      7.17920        -0.019815     -0.007508      0.031517
