# total energy = -670.97660910 eV
 
CRYSTAL
PRIMVEC
12.009590 -0.001980 0.017572 
0.001320 7.811972 0.014287 
4.014334 3.887051 9.111409 
PRIMCOORD
80 1
Li	      6.04844      7.79457      8.91633         0.006329     -0.000133     -0.037373
Li	      6.04752      3.88855      8.90491         0.007748      0.001092     -0.038942
Li	     13.99251      7.79286      9.00990        -0.002998     -0.000731     -0.027963
Li	     13.99224      3.88673      9.00569        -0.004380     -0.001463     -0.026148
Li	     11.97189      3.90007      2.67500         0.002837      0.000264     -0.002752
Li	     14.01929      5.84346      6.64560        -0.006938      0.004804      0.003815
Li	     11.97423      7.80538      2.68523        -0.002990      0.001641      0.000838
Li	     14.01989      9.75104      6.65264        -0.008282     -0.000544      0.004281
Ti	      2.18436      1.95160      2.40006         0.179076     -0.055925     -0.041345
Ti	      4.10088      3.89250      6.74996         0.167418      0.001727     -0.162729
Ti	      2.18506      5.85239      2.40732         0.171696      0.059307     -0.037463
Ti	      4.10412      7.79851      6.75729         0.148835      0.001197     -0.162980
Ti	      6.00669      1.94854      2.39188        -0.003373     -0.016219      0.099911
Ti	      8.02723      3.89155      6.74095         0.035584      0.002560     -0.088522
Ti	      6.00692      5.85434      2.39853        -0.001357      0.005422      0.107743
Ti	      8.02647      7.79742      6.74723         0.033492      0.003861     -0.060935
Ti	      9.84357      1.94757      2.32049        -0.141132     -0.007608      0.111081
Ti	     11.91632      3.89072      6.68966        -0.204592      0.001220     -0.085494
Ti	      9.84357      5.85287      2.32737        -0.135923      0.009366      0.111512
Ti	     11.91465      7.79626      6.69864        -0.194130      0.007729     -0.096760
Ti	     12.05047      1.95192      0.12516         0.046939      0.001130      0.071055
Ti	      2.11022      3.89792      4.51132         0.087004      0.007302      0.053921
Ti	     12.05116      5.85789      0.13236         0.044229      0.007060      0.074566
Ti	      2.10975      7.80405      4.52517         0.087950      0.003877      0.010300
Ti	      8.09861      5.84104      9.09062         0.105792      0.005158     -0.085596
Ti	      6.07282      3.89881      4.67602         0.106055     -0.000565      0.007333
Ti	      8.09881      9.74721      9.09797         0.104438     -0.001007     -0.092246
Ti	      6.07347      7.80461      4.68438         0.080315     -0.000428     -0.006684
Ti	     11.86520      5.84026      9.09173        -0.169015     -0.003801      0.056209
Ti	      9.92198      3.89693      4.65242        -0.158345      0.000911      0.118614
Ti	     11.86516      9.74670      9.09868        -0.160580      0.002424      0.050571
Ti	      9.92044      7.80275      4.66022        -0.131703     -0.000325      0.098446
O	      2.01463      1.95150      0.30797        -0.055668      0.006206      0.022689
O	      4.01686      3.89657      4.83277        -0.134182     -0.004490      0.099171
O	      2.01517      5.86140      0.31534        -0.054277     -0.006563      0.021085
O	      4.01749      7.80318      4.84037        -0.128758     -0.003953      0.110405
O	      5.99269      1.95213      0.33419         0.069846      0.002836     -0.033212
O	      8.00801      3.89678      4.75006         0.025019     -0.001083      0.025355
O	      5.99312      5.85903      0.34133         0.064739      0.000879     -0.032309
O	      8.00806      7.80232      4.75690         0.031325      0.000448      0.014897
O	      9.99745      1.95208      0.30130         0.010576      0.002344      0.027560
O	     12.04448      3.89553      4.76920         0.020678     -0.003007      0.084497
O	      9.99794      5.85771      0.30861         0.013134      0.001587      0.026319
O	     12.04269      7.80136      4.77882         0.015147     -0.003986      0.104705
O	      4.01933      1.94975      2.00656        -0.183019     -0.000491      0.015315
O	      6.00857      3.89229      6.72172        -0.116631     -0.001158      0.028969
O	      4.01959      5.85504      2.01389        -0.174734      0.000573      0.013476
O	      6.01007      7.79831      6.73039        -0.117243     -0.001724      0.031887
O	      7.96651      1.94905      1.96064         0.139178     -0.000843     -0.054851
O	     10.02294      3.89217      6.61310         0.143795     -0.000525     -0.059480
O	      7.96699      5.85520      1.96736         0.134365     -0.001552     -0.050739
O	     10.02229      7.79698      6.62054         0.146005      0.002979     -0.059861
O	     11.99533      1.94862      2.04470        -0.015473      0.003087     -0.120733
O	     14.02866      3.89132      6.58988        -0.010495     -0.000389     -0.011538
O	     11.99599      5.85328      2.05212        -0.015289     -0.000768     -0.125352
O	     14.02756      7.79730      6.59846        -0.002708      0.001827     -0.001314
O	      4.01145      3.88870      8.88671        -0.003109     -0.004095      0.059126
O	      2.04068      1.94325      4.41151        -0.007973      0.037620     -0.026600
O	      4.01296      7.79469      8.89564         0.000324     -0.003681      0.051914
O	      2.04166      5.85332      4.41887        -0.006551     -0.048303     -0.028116
O	      7.97815      3.88825      8.82906         0.018799     -0.006147      0.022656
O	      6.02263      1.94525      4.33208        -0.010069     -0.000233     -0.061129
O	      7.97834      7.79418      8.83690         0.018209     -0.003666      0.026093
O	      6.02232      5.85151      4.33910        -0.007481     -0.010820     -0.062906
O	     12.06419      3.88723      8.76917        -0.010276     -0.001083      0.015285
O	      9.97844      1.94432      4.25773        -0.002577     -0.009010     -0.128317
O	     12.06395      7.79340      8.77700        -0.010345     -0.004203      0.013682
O	      9.97883      5.85004      4.26470        -0.001627     -0.003273     -0.128019
O	      1.91756      3.90208      2.50965         0.052645     -0.001832      0.082305
O	      3.92386      5.84502      7.17143         0.008134      0.002873      0.006788
O	      1.91371      7.80807      2.52961         0.081643     -0.004369      0.025375
O	      3.92472      9.75047      7.17874         0.006350      0.002974      0.006352
O	      5.99454      3.90126      2.65834         0.007537      0.012324      0.012869
O	      8.03093      5.84474      7.13782         0.007143     -0.011153      0.081571
O	      5.99501      7.80743      2.66585         0.008770      0.006466      0.009371
O	      8.03151      9.74960      7.14502         0.008495      0.011492      0.082924
O	     10.03296      3.90028      2.54152        -0.027505      0.002579     -0.049517
O	     12.09427      5.84313      7.09876         0.000890      0.001102      0.016188
O	     10.03417      7.80612      2.54871        -0.029760      0.005002     -0.048008
O	     12.09419      9.74949      7.10563         0.003001     -0.002102      0.016906
