# total energy = -670.99082069 eV
 
CRYSTAL
PRIMVEC
11.735557 -0.001346 0.003450 
0.001738 7.975379 0.015567 
3.912762 3.969596 9.177749 
PRIMCOORD
80 1
Li	      1.97339      7.97068      0.41296         0.001985     -0.003944      0.020228
Li	      3.92795      1.98544      4.43933         0.008099      0.002005     -0.024077
Li	      9.74007      3.99181      0.33640         0.002784      0.004284      0.036893
Li	      9.78674      7.97034      0.32960         0.001025     -0.004431      0.031788
Li	      5.89991      5.97064      6.63847        -0.000575      0.002542     -0.006474
Li	      5.90897      9.95360      6.71617        -0.007018      0.003436     -0.007741
Li	     13.67626      5.97292      6.58437        -0.001759      0.002132     -0.029609
Li	     13.66959      9.95190      6.65707        -0.001130      0.002836     -0.046413
Ti	      1.92195      2.05947      2.40200        -0.045956      0.073909      0.036725
Ti	      3.91093      3.98089      6.85819         0.009363     -0.024535     -0.052661
Ti	      1.97779      5.93742      2.46487        -0.000862     -0.053648     -0.025690
Ti	      3.91596      7.95526      6.84124         0.000878      0.025938     -0.068043
Ti	      5.92383      1.98878      2.34898         0.089738     -0.005208      0.020606
Ti	      7.92471      3.97457      6.95321         0.157915     -0.014907      0.009111
Ti	      5.87554      5.97929      2.41836         0.026985      0.002334     -0.014081
Ti	      7.91870      7.95773      6.92323         0.158632      0.018454     -0.019273
Ti	      9.75907      1.98824      2.43950        -0.045731      0.005979      0.098764
Ti	     11.64982      3.96674      6.88234        -0.172732     -0.012540     -0.034664
Ti	      9.75561      5.97752      2.44258        -0.033193     -0.003084      0.099460
Ti	     11.65272      7.96907      6.88516        -0.163823      0.009864     -0.041526
Ti	     11.76109      2.04343      0.07106         0.033125      0.024252      0.146257
Ti	     13.62987      4.02291      4.46055        -0.079981      0.036122     -0.036037
Ti	      0.04745      5.93545      0.10711         0.080892     -0.031719      0.178796
Ti	      1.89576      7.91840      4.42757        -0.082770     -0.042173     -0.052611
Ti	      3.93977      2.04900      0.07571         0.073598      0.040159      0.005879
Ti	      5.95504      4.02381      4.49451         0.114727      0.040632     -0.149777
Ti	      3.95268      5.93575      0.07207         0.093516     -0.041566      0.053786
Ti	      5.95452      7.92239      4.49042         0.115906     -0.040791     -0.146436
Ti	     11.66324      5.96319      9.16765        -0.114867     -0.007763      0.033886
Ti	      9.76907      3.98016      4.46782        -0.014229      0.009533     -0.012261
Ti	      7.73042      5.98537      0.03425        -0.162843      0.008856      0.060040
Ti	      9.78581      7.96519      4.46828        -0.012877     -0.002154     -0.004704
O	      1.94579      1.95089      0.31093        -0.075464      0.004938      0.014807
O	      3.91984      3.89544      4.89487        -0.014672     -0.011523      0.113281
O	      1.95086      6.02073      0.31181        -0.096304      0.003129     -0.015947
O	      3.91725      8.04802      4.88577        -0.009905      0.009570      0.118299
O	      5.86371      1.98757      0.33505         0.030778      0.004156      0.008118
O	      7.83650      3.98449      4.93160        -0.055212     -0.005302      0.016834
O	      5.86110      5.98316      0.34406         0.048214     -0.004458     -0.009987
O	      7.84197      7.95988      4.91893        -0.054462      0.002047      0.038407
O	      9.78371      1.99156      0.28386         0.050358      0.000261     -0.037716
O	     11.72697      3.97826      4.89582         0.058065     -0.002952      0.051741
O	      9.78576      5.98162      0.30708         0.039922     -0.000551     -0.023530
O	     11.73074      7.96525      4.89549         0.052186      0.002005      0.037451
O	      3.90917      2.00463      2.06407        -0.011885      0.006635     -0.075028
O	      5.87458      3.96959      6.61461        -0.060700      0.007617      0.016591
O	      3.91457      5.97175      2.03734        -0.013154     -0.000431     -0.076470
O	      5.87476      7.96974      6.59711        -0.060230     -0.008111      0.014355
O	      7.83089      1.98237      1.97827        -0.055311      0.002921     -0.053575
O	      9.78173      3.97477      6.59537         0.014515      0.001696      0.056816
O	      7.81498      5.98598      2.00522         0.000195     -0.001571     -0.067230
O	      9.78608      7.96518      6.58936         0.018364     -0.005583      0.047002
O	     11.71941      2.00974      2.00248         0.043908      0.005345     -0.145646
O	     13.69717      3.96987      6.61023         0.044476      0.008221      0.014235
O	     11.73586      5.96119      2.02474         0.017696     -0.003103     -0.173303
O	     13.69421      7.96880      6.59395         0.041548     -0.008665      0.008415
O	      3.90886      3.96709      8.89005        -0.005288     -0.003220     -0.018669
O	      2.00036      1.97775      4.37754        -0.007136      0.013603     -0.076829
O	      3.82469      7.96028      8.87408         0.001023     -0.004277     -0.018330
O	      1.98029      5.98128      4.47690        -0.006331      0.009923     -0.060719
O	      7.74745      3.97228      8.90020        -0.014843     -0.005913     -0.073022
O	      5.84754      1.98638      4.34250         0.003149     -0.002828      0.004856
O	      7.82172      7.95600      8.89415        -0.010944     -0.004241     -0.053335
O	      5.86068      5.97267      4.44210         0.007933     -0.001176     -0.012694
O	     11.81148      3.96852      8.87006         0.012427      0.007170     -0.049223
O	      9.76867      1.98587      4.36373         0.000858     -0.001766     -0.158585
O	     11.80494      7.95923      8.87612         0.015104     -0.005614     -0.047272
O	      9.77211      5.97254      4.37204         0.004158      0.002431     -0.151019
O	      1.94335      3.98199      2.48601         0.011990     -0.037550      0.123104
O	      3.92034      5.97112      7.14924        -0.007080      0.003891      0.005624
O	      1.93074      7.98881      2.48933         0.010808     -0.001329      0.108685
O	      3.92076      9.95309      7.15035        -0.012661     -0.004683      0.001137
O	      5.89077      3.96879      2.58014        -0.000665     -0.044202      0.128631
O	      7.75858      5.97405      7.24652        -0.011393      0.016025      0.025545
O	      5.87736      7.98723      2.57480         0.001590      0.036369      0.138163
O	      7.76794      9.95041      7.24451         0.003735     -0.001075      0.031748
O	      9.75581      3.98336      2.48655        -0.001670     -0.006650      0.068509
O	     11.81293      5.96854      7.19327         0.015128     -0.001173      0.049257
O	      9.77810      7.97059      2.48703        -0.002530      0.003281      0.069688
O	     11.80643      9.95510      7.20979         0.010888      0.001906      0.026690
