# total energy = -671.28984451 eV
 
CRYSTAL
PRIMVEC
11.684457 -0.002049 0.001286 
0.001280 7.990471 0.014878 
3.894595 3.976100 9.156185 
PRIMCOORD
80 1
Li	      2.00146      3.99633      0.41746        -0.001885     -0.002059      0.011015
Li	      5.80752      3.99579      0.43140         0.000279     -0.002889     -0.019895
Li	      9.72068      3.99427      0.32564         0.005373      0.000946      0.024229
Li	      9.72355      7.99034      0.35050         0.001279     -0.000674      0.039074
Li	      5.85807      5.97504      6.52767        -0.001668      0.001331     -0.017234
Li	      5.85934      9.98216      6.53537        -0.004304     -0.009452     -0.015590
Li	     13.63185      5.97204      6.53351        -0.006973      0.007038     -0.027278
Li	     13.63238      9.98231      6.54263        -0.004522     -0.012174     -0.028874
Ti	      1.96957      1.93962      2.45150         0.016148     -0.061448     -0.009401
Ti	      3.90775      3.98313      6.82323         0.013902     -0.002338     -0.075476
Ti	      1.97020      6.04413      2.45834         0.014539      0.057036     -0.000541
Ti	      3.90056      7.97756      6.86786        -0.016261      0.003453     -0.099307
Ti	      5.84202      1.94568      2.44743         0.013395     -0.030867     -0.033266
Ti	      7.86024      3.98262      6.82275         0.142522     -0.005044     -0.083170
Ti	      5.84222      6.03692      2.45469         0.012537      0.027976     -0.029494
Ti	      7.86146      7.97657      6.89967         0.159099      0.001851     -0.114049
Ti	      9.70316      1.99435      2.43286        -0.031562     -0.024583      0.115581
Ti	     11.60904      3.98131      6.81309        -0.164178      0.003332     -0.116120
Ti	      9.70426      5.98450      2.44002        -0.029423      0.033937      0.116353
Ti	     11.61284      7.97708      6.84560        -0.155481     -0.005650     -0.113910
Ti	      0.04591      1.95514      0.08658         0.057793     -0.031607      0.188802
Ti	      1.94982      3.98844      4.40864        -0.026050     -0.001117     -0.045224
Ti	      0.04657      6.03946      0.09303         0.058925      0.031652      0.195375
Ti	      1.94773      7.98347      4.45936        -0.011952     -0.003757     -0.002797
Ti	      3.90587      1.90376      0.03356         0.041107     -0.094431      0.049550
Ti	      5.84537      3.98693      4.40510         0.025864      0.004563     -0.034442
Ti	      3.90686      6.09066      0.04035         0.039410      0.093553      0.050723
Ti	      5.85638      7.98305      4.46761         0.038223     -0.004267     -0.021095
Ti	     11.62433      5.93372      9.16034        -0.088392     -0.034192      0.057362
Ti	      9.73261      3.98665      4.44101        -0.014322     -0.001234     -0.028665
Ti	      7.73080      6.03580      0.01232        -0.090764      0.030707      0.058251
Ti	      9.71930      7.98121      4.46757        -0.035065      0.000146     -0.037290
O	      1.95262      2.04512      0.30631        -0.061632     -0.003566     -0.017405
O	      3.89752      3.98647      4.86603        -0.007021     -0.000385      0.076979
O	      1.95306      5.94764      0.31302        -0.054959      0.002694     -0.017356
O	      3.89935      7.98129      4.90724        -0.002676     -0.000206      0.079980
O	      5.83504      2.04459      0.31266         0.022441     -0.018254     -0.022525
O	      7.79439      3.98560      4.86537         0.005130      0.000439      0.088608
O	      5.83600      5.94705      0.31970         0.014539      0.016833     -0.018760
O	      7.79513      7.98019      4.91653        -0.004118     -0.000726      0.047035
O	      9.73682      1.99857      0.29108         0.022579     -0.001153     -0.021518
O	     11.68467      3.98534      4.86903         0.017442     -0.001674      0.109707
O	      9.73759      5.99105      0.29785         0.022621      0.001840     -0.016278
O	     11.67944      7.97940      4.90354         0.031022      0.002151      0.115393
O	      3.89663      1.97043      2.01104        -0.006546     -0.000261     -0.054790
O	      5.83947      3.98352      6.55467        -0.064907     -0.001484      0.012068
O	      3.89695      6.01423      2.01795        -0.008032      0.004268     -0.056974
O	      5.84459      7.97796      6.61540        -0.059055      0.001876      0.009563
O	      7.78418      1.98704      1.99121        -0.004582     -0.005697     -0.048624
O	      9.73797      3.98320      6.55826         0.001235     -0.002624      0.036744
O	      7.78474      5.99634      1.99828        -0.000372      0.007749     -0.043110
O	      9.73346      7.97706      6.61290         0.008939      0.002901      0.025877
O	     11.68537      1.98066      2.00505         0.034239     -0.001674     -0.163351
O	     13.64207      3.98191      6.56637         0.045651      0.000027      0.015529
O	     11.68637      6.00096      2.01217         0.025656      0.007586     -0.163961
O	     13.63914      7.97683      6.62060         0.053667      0.003784      0.012731
O	      3.81532      3.97856      8.85705         0.012285      0.003234     -0.029318
O	      1.94989      1.99972      4.42268         0.001512     -0.013419     -0.095079
O	      3.89296      7.97369      8.89412        -0.001883      0.000094     -0.030708
O	      1.95105      5.97599      4.43010        -0.000570      0.016209     -0.102842
O	      7.78911      3.97813      8.83999         0.010321      0.006021     -0.020736
O	      5.84931      1.99560      4.42026        -0.014579     -0.033754     -0.107979
O	      7.79445      7.97302      8.89456         0.006756     -0.000174     -0.034852
O	      5.84995      5.97883      4.42639        -0.015165      0.033420     -0.107594
O	     11.75333      3.97732      8.85142        -0.011127      0.003862     -0.014167
O	      9.73902      1.98655      4.35671         0.006754      0.013224     -0.133078
O	     11.67636      7.97276      8.88951        -0.006903     -0.003720     -0.014682
O	      9.73987      5.98561      4.36465         0.003159     -0.015194     -0.141043
O	      1.95310      3.99175      2.47778        -0.005856      0.000369      0.129305
O	      3.90172      5.97646      7.15207         0.013114     -0.020531     -0.008806
O	      1.94780      7.98677      2.49688        -0.016722      0.003692      0.159773
O	      3.90247      9.97866      7.15975         0.011060      0.013033     -0.008727
O	      5.83801      3.99141      2.47135        -0.002058     -0.001337      0.112089
O	      7.70817      5.97212      7.19463        -0.005318     -0.026186      0.047993
O	      5.85078      7.98610      2.51195         0.011771     -0.000044      0.194346
O	      7.70914      9.98093      7.20199        -0.004684      0.031917      0.049911
O	      9.73620      3.98969      2.46244         0.000145      0.005705      0.064907
O	     11.76974      5.97690      7.17814         0.008058     -0.013993      0.057741
O	      9.73037      7.98527      2.49326         0.001577     -0.001892      0.045611
O	     11.76992      9.97535      7.18583         0.009498      0.015281      0.049177
