# total energy = -91.73396122 eV
 
CRYSTAL
PRIMVEC
0.000006 4.125411 -0.000007 
4.069380 -0.000001 4.069454 
4.202284 -0.000029 -4.202284 
PRIMCOORD
16 1
Li	      2.12249      2.06297     -0.08810         0.023978      0.000301     -0.024066
Li	      4.13510      0.00087     -0.07005         0.002012     -0.002071      0.004396
Li	      6.15270      2.06283     -0.04811        -0.027286      0.000301      0.023346
Li	      6.17058      4.12501      1.96488         0.002791      0.002470      0.000504
Mn	      0.00181      0.00041     -0.00154         0.001201     -0.000164     -0.007569
Mn	      2.03637      0.00026      2.03320         0.006471      0.000060     -0.001275
Ni	      4.18561      2.06302      1.91817         0.007760      0.000341     -0.008632
Ni	      4.08961      2.06302     -2.05505        -0.011391      0.000079      0.010849
O	      4.13774      2.06324     -0.06842        -0.001155     -0.000807     -0.002698
O	      6.35693      0.00030     -0.25247         0.029354     -0.000180     -0.029299
O	      6.17222      2.06263      1.96625         0.001631      0.001130      0.000102
O	      4.27046      0.00034     -2.23557         0.026671     -0.000469     -0.027525
O	      2.03673      2.06303      2.03307        -0.000590     -0.000253     -0.001647
O	      4.00519      0.00032      2.09911        -0.033108     -0.000014      0.032689
O	      4.07117      2.06309      4.06762         0.001784     -0.000410      0.000048
O	      1.91864      0.00034      0.11638        -0.030124     -0.000314      0.030776
