# total energy = -671.05121700 eV
 
CRYSTAL
PRIMVEC
11.737915 -0.001392 0.004199 
0.001685 7.982717 0.013724 
3.914099 3.971178 9.161295 
PRIMCOORD
80 1
Li	      1.97766      3.98787      0.35718         0.000511     -0.001308      0.009458
Li	      1.99018      7.98367      0.34385         0.004826     -0.000509      0.029413
Li	      9.75710      3.98598      0.29862         0.000283     -0.001034      0.005371
Li	      9.74910      7.98661      0.23644        -0.002692      0.001977      0.017399
Li	      5.89797      9.96647      6.54059         0.003300      0.000238     -0.001456
Li	     13.67177      5.96240      6.52067         0.005033     -0.003809     -0.018430
Li	     11.72245      7.97396      2.46886         0.005211      0.001172      0.018750
Li	     13.72103      9.97332      6.55429        -0.001233     -0.002552     -0.021863
Ti	      2.01051      2.04492      2.48136         0.067383      0.109167      0.014477
Ti	      3.94659      4.02241      6.80884         0.048309      0.023724     -0.148329
Ti	      2.01183      5.92486      2.47287         0.070255     -0.110725      0.025918
Ti	      3.96653      7.91859      6.84215         0.089176     -0.026712     -0.083448
Ti	      5.85863      1.99116      2.41090        -0.019996      0.008128      0.037771
Ti	      7.89707      4.02330      6.85994         0.129231      0.046778     -0.051742
Ti	      5.84920      5.97716      2.35084        -0.018472      0.000042      0.032054
Ti	      7.88150      7.91168      6.90058         0.062417     -0.056769      0.002989
Ti	      9.69867      2.03403      2.42140        -0.096083      0.068260      0.107143
Ti	     11.66308      3.97396      6.83038        -0.159592     -0.002140     -0.058024
Ti	      9.70498      5.93813      2.42277        -0.093477     -0.071351      0.127333
Ti	     11.67323      7.96801      6.82876        -0.112047     -0.001934     -0.009992
Ti	     11.75492      2.00066      0.06668         0.038066     -0.009544      0.067864
Ti	      1.93682      3.97719      4.42697        -0.026102     -0.011330     -0.001127
Ti	     11.74673      5.97778      0.05248         0.029690      0.016557      0.038191
Ti	      1.99531      7.98477      4.48618         0.019314      0.019110     -0.032987
Ti	      3.97069      1.98900      0.01682         0.129401     -0.011868      0.017109
Ti	      5.88775      4.02847      4.50780         0.014728      0.015189     -0.130344
Ti	      7.88675      9.96579      9.13742         0.112395      0.011392     -0.008363
Ti	      5.88790      7.92403      4.50808         0.013285     -0.020979     -0.151678
Ti	     11.64307      5.96932      9.14199        -0.174793     -0.011381      0.055791
Ti	      9.77060      3.98126      4.47170        -0.022014     -0.002191     -0.013418
Ti	     11.65484      9.95832      9.13667        -0.137422      0.004196      0.035157
Ti	      9.72128      7.97833      4.53703        -0.078204      0.001279     -0.047706
O	      1.95400      1.98873      0.32935        -0.086076      0.003292     -0.017805
O	      3.92612      4.00452      4.88810         0.026332      0.011080      0.141807
O	      1.95342      5.99135      0.30597        -0.067901     -0.000465     -0.028314
O	      3.94219      7.95189      4.90757        -0.010603     -0.005986      0.107091
O	      5.86285      1.99138      0.32775        -0.008004      0.006595     -0.032125
O	      7.83351      3.99106      4.90127         0.006832      0.009538      0.067115
O	      5.86199      5.98642      0.29868        -0.011534      0.003232     -0.018470
O	      7.81852      7.96399      4.92588         0.066895     -0.004065      0.035496
O	      9.77889      1.98815      0.30402         0.059936      0.013035     -0.025905
O	     11.73726      3.97542      4.86137         0.025714      0.001469      0.073250
O	      9.78502      5.99269      0.28524         0.067364     -0.008695     -0.025033
O	     11.74373      7.98100      4.83624         0.001154     -0.003471      0.043555
O	      3.92201      1.99148      2.01622         0.013074     -0.001846     -0.012088
O	      5.86585      3.93258      6.57686        -0.075414      0.000695      0.025540
O	      3.91776      5.98082      1.99350         0.023802     -0.000047     -0.008572
O	      5.86983      8.01347      6.60232        -0.102174     -0.011557      0.029936
O	      7.80898      1.99673      1.96875         0.050362     -0.007933     -0.020526
O	      9.78350      3.97538      6.56573         0.031430     -0.002782      0.016935
O	      7.81491      5.97689      1.95456         0.036106      0.002572     -0.032258
O	      9.78261      7.97153      6.57335         0.041834     -0.002501     -0.002951
O	     11.73142      1.91260      2.03503         0.013726     -0.019005     -0.101105
O	     13.70970      3.97636      6.59264         0.031034      0.002197      0.013255
O	     11.73539      6.05903      2.02250         0.001309      0.016369     -0.089065
O	     13.71182      7.96618      6.58843         0.014952      0.004252     -0.000343
O	      3.91922      3.97427      8.93083         0.006295      0.007799      0.010939
O	      2.00042      1.97438      4.45774        -0.008684     -0.036770     -0.057463
O	      3.91789      7.96074      8.93007        -0.001392     -0.009067     -0.003984
O	      1.98234      5.99474      4.43418        -0.010192      0.027103     -0.073333
O	      7.74387      3.97667      8.86514         0.002203     -0.002700     -0.044095
O	      5.89184      1.98556      4.35619        -0.001696     -0.009487     -0.047534
O	      7.73880      7.95642      8.87772         0.009653     -0.006139     -0.068235
O	      5.90824      5.97494      4.30453        -0.006665      0.026883     -0.093367
O	     11.80311      3.97319      8.83087        -0.003328     -0.005349     -0.032030
O	      9.75626      1.97435      4.34121        -0.014735     -0.056973     -0.114671
O	     11.81281      7.96220      8.82966         0.003975      0.002931     -0.050209
O	      9.76713      5.99233      4.33659        -0.011292      0.050522     -0.117543
O	      1.94663      3.98828      2.41539         0.011064      0.017365      0.060848
O	      3.82827      5.96890      7.19443         0.005544      0.014020      0.021056
O	      1.91670      7.97458      2.52226         0.008159     -0.010210      0.091274
O	      3.91795      9.96592      7.17921        -0.010992     -0.009560      0.013214
O	      5.88958      3.98202      2.58896        -0.010470      0.030755      0.133445
O	      7.81976      5.96833      7.20763        -0.005067      0.019664      0.049200
O	      5.89312      7.97744      2.59754        -0.004301     -0.033637      0.162978
O	      7.74863      9.96387      7.19669        -0.006655     -0.001258      0.071507
O	      9.78125      3.98646      2.45148        -0.006761      0.015854      0.025426
O	     11.81927      5.97226      7.15837         0.006615      0.014163      0.018591
O	      9.80212      7.97643      2.54687        -0.009103     -0.017457      0.014887
O	     11.83046      9.96157      7.15835         0.006993     -0.015499      0.026403
