# total energy = -674.21488671 eV
 
CRYSTAL
PRIMVEC
11.982872 -0.002153 0.006019 
0.001239 7.931803 0.015145 
3.996463 3.947745 9.064820 
PRIMCOORD
81 1
Li	      4.03442      5.94148      4.49453         0.005694      0.003548     -0.039195
Li	      9.95593      3.96622      0.05336        -0.004883      0.010112     -0.001625
Li	     12.00554      5.93991      4.48835        -0.025828     -0.000779     -0.039562
Li	      9.95641      7.93050      0.06072        -0.005018     -0.012862     -0.001691
Li	      9.94842      5.93539      6.85131        -0.001091     -0.000843      0.029674
Li	     12.00143      3.93825      2.24860        -0.019112      0.010389     -0.015209
Li	     13.95595      5.93453      6.85611         0.006171      0.000984      0.012863
Li	     12.00186      7.95029      2.25595        -0.015638     -0.008863     -0.015788
Li	     13.98703      9.90122      6.75892         0.000593     -0.002479     -0.042089
Ti	      2.12139      1.98055      2.35290         0.148049     -0.000933      0.038588
Ti	      4.16370      3.93398      6.87624         0.201985      0.035546     -0.008678
Ti	      2.08659      5.94709      2.25476         0.149910     -0.000000     -0.115559
Ti	      4.16467      7.93919      6.88424         0.203860     -0.029916     -0.009574
Ti	      5.98003      1.98088      2.19093        -0.008313     -0.002409      0.062598
Ti	      7.96614      3.89705      6.86874         0.012934     -0.089355      0.089524
Ti	      5.98122      5.94624      2.24829        -0.008301      0.004135     -0.083287
Ti	      7.96699      7.97384      6.87638         0.008454      0.090549      0.094133
Ti	      9.90061      1.97868      2.29535        -0.144695     -0.000061      0.090431
Ti	     11.89461      3.90068      6.72922        -0.140054     -0.069219     -0.023534
Ti	      9.87254      5.94502      2.32104        -0.247808     -0.004204      0.149597
Ti	     11.89544      7.97153      6.73624        -0.143208      0.060202     -0.014614
Ti	      4.15779      5.93246      9.05130         0.185129      0.000378      0.013590
Ti	      2.08821      3.89887      4.54633         0.066240     -0.109529     -0.077404
Ti	      0.11759      5.95081      0.01196         0.193819     -0.000439      0.044498
Ti	      2.08922      7.98392      4.55438         0.068706      0.115553     -0.081907
Ti	      3.99057      1.98452      0.04812        -0.020261     -0.000043     -0.064115
Ti	      6.03876      3.90876      4.48257         0.042756     -0.002659     -0.104861
Ti	      4.01974      5.95006      0.11501         0.057286      0.002632      0.058855
Ti	      6.03939      7.97279      4.48973         0.043357      0.014501     -0.102803
Ti	      7.90624      1.98374      0.05401        -0.087958     -0.003758      0.062972
Ti	      9.84078      3.89547      4.46999        -0.214178      0.017740     -0.106200
Ti	      7.86975      5.94933      0.05415        -0.255041     -0.000121      0.093842
Ti	      9.84103      7.98427      4.47781        -0.213574     -0.014121     -0.109021
O	      2.00446      1.98362      0.31435        -0.136842     -0.001452      0.005650
O	      4.01525      4.02517      4.86241        -0.055743     -0.004067      0.016194
O	      1.99219      5.94919      0.29008        -0.121534     -0.002176     -0.030696
O	      4.01604      7.85643      4.86976        -0.057705      0.000927      0.014909
O	      5.97432      1.98183      0.17498         0.054593      0.009707      0.094746
O	      7.97496      3.96150      4.82514         0.051622     -0.034879      0.036088
O	      5.98882      5.94794      0.23744         0.087257      0.000359     -0.016099
O	      7.97552      7.91836      4.83255         0.050167      0.036478      0.034449
O	      9.96811      1.98183      0.21780         0.005130      0.006980     -0.033695
O	     11.99033      4.01626      4.79289         0.051902     -0.001770      0.107661
O	      9.98109      5.94771      0.27495         0.058332      0.003654     -0.037645
O	     11.99098      7.86253      4.80015         0.051582     -0.001828      0.107281
O	      3.98774      1.98122      2.05720        -0.109150     -0.001534     -0.062987
O	      6.01277      3.95304      6.52829        -0.136300     -0.017864      0.001286
O	      4.00084      5.94643      2.14514        -0.094589     -0.003841      0.028311
O	      6.01358      7.92145      6.53545        -0.138319      0.015396      0.003788
O	      7.99641      1.97983      2.00110         0.071592      0.000968     -0.124139
O	      9.96291      4.01125      6.48882         0.084350      0.002751      0.021557
O	      7.98995      5.94535      2.00759         0.126939      0.002717     -0.028002
O	      9.96334      7.86142      6.49632         0.090908     -0.003716      0.016294
O	     11.97737      1.97856      1.99841         0.019349      0.005801     -0.004317
O	     13.97137      3.95347      6.58324        -0.017089      0.005451     -0.002722
O	     11.97596      5.94495      2.07393        -0.008282      0.000086     -0.034983
O	     13.97231      7.91741      6.59068        -0.022436      0.002204     -0.002616
O	      3.92619      3.95170      8.89141         0.036940     -0.027256      0.032855
O	      2.02517      1.97573      4.41526         0.003823      0.005158      0.022233
O	      3.92659      7.91393      8.89918         0.038890      0.021860      0.031544
O	      2.02310      5.94215      4.34882         0.003875     -0.002009      0.019437
O	      7.98605      3.94052      8.80600         0.002825      0.004894     -0.077802
O	      5.99230      1.97604      4.22038         0.005900     -0.001000     -0.030090
O	      7.98656      7.92412      8.81364         0.002783     -0.007957     -0.077753
O	      5.95664      5.94187      4.23469        -0.000310     -0.004354      0.018404
O	     12.02385      3.94704      8.75001         0.006799      0.017804     -0.037602
O	      9.99925      1.97447      4.28879         0.057762      0.001994      0.028781
O	     12.02479      7.91542      8.75721         0.004014     -0.017393     -0.038719
O	     10.04578      5.94062      4.27730         0.066216      0.000684      0.088571
O	      1.91913      3.98086      2.57244         0.009125      0.028182      0.053701
O	      3.93016      5.93655      7.06425         0.004289     -0.003207     -0.020480
O	      1.91991      7.91095      2.57955         0.007517     -0.035686      0.051809
O	      3.92324      9.90232      7.08765        -0.012671     -0.002882     -0.008295
O	      5.99741      3.95543      2.54963        -0.017157     -0.040145      0.098174
O	      8.03295      5.93606      7.13529        -0.019569     -0.001978      0.056372
O	      5.99827      7.93504      2.55685        -0.021170      0.029667      0.100196
O	      7.99736      9.90117      7.14755        -0.016422      0.005307     -0.038143
O	     10.05368      3.96804      2.45447         0.021291     -0.076459     -0.068505
O	     11.95280      5.93489      7.01888         0.019741      0.004527      0.020077
O	     10.05378      7.92061      2.46160         0.021729      0.072217     -0.071156
O	     12.01952      9.90101      7.07008         0.028059     -0.005992     -0.048372
