# total energy = -674.30973419 eV
 
CRYSTAL
PRIMVEC
12.045578 -0.001713 -0.004287 
0.001493 7.891700 0.015043 
4.009495 3.928081 9.031264 
PRIMCOORD
81 1
Li	     14.05290      7.87461      8.93681         0.025757     -0.000826     -0.027394
Li	     12.01189      5.92246      4.59062        -0.012766     -0.010184     -0.004842
Li	     14.05229      3.92904      8.89261         0.026148     -0.001108     -0.039467
Li	     12.01317      9.84405      4.59838        -0.012185      0.006440     -0.005449
Li	      7.98057      3.94209      2.44838         0.007117     -0.005052      0.050854
Li	     12.03687      3.94150      2.36802        -0.022912      0.002203      0.022881
Li	     14.08527      5.90961      6.78003         0.012965     -0.004722      0.007987
Li	     12.06447      7.88771      2.33322        -0.020397      0.001926      0.021969
Li	     14.08642      9.84720      6.78706         0.011741      0.003555      0.008728
Ti	      2.21457      1.97604      2.37544         0.189342     -0.002241     -0.125707
Ti	      4.16239      3.93399      6.75819         0.295672      0.000216      0.016647
Ti	      2.21503      5.90924      2.38328         0.190502      0.006166     -0.131326
Ti	      4.17352      7.87941      6.82625         0.296990      0.006587      0.004810
Ti	      5.99868      1.97499      2.29793        -0.021777     -0.016924      0.095074
Ti	      7.99482      3.93403      6.62029        -0.034646     -0.001661     -0.006335
Ti	      5.99957      5.91030      2.30536        -0.027250      0.018976      0.092915
Ti	      7.99767      7.88005      6.83143        -0.061036     -0.001520      0.029177
Ti	      9.90795      1.95312      2.16674        -0.088930     -0.034686     -0.011279
Ti	     11.90063      3.93311      6.76710        -0.175444     -0.000221     -0.066533
Ti	      9.90886      5.93258      2.17422        -0.092218      0.029396     -0.004777
Ti	     11.88469      7.87941      6.79492        -0.124581     -0.001098     -0.085437
Ti	      0.19732      1.95782      0.06473         0.188448      0.014810     -0.070839
Ti	      2.13618      3.93820      4.56675         0.131343      0.003215      0.009498
Ti	      0.19772      5.93653      0.07251         0.192037     -0.013773     -0.078415
Ti	      2.15832      7.88395      4.56767         0.152539      0.003500     -0.033693
Ti	      8.01105      5.83588      8.96821        -0.011446     -0.038466     -0.104727
Ti	      6.03897      3.93738      4.62410         0.064135      0.004422      0.010730
Ti	      8.01132      9.91275      8.97632        -0.006653      0.050480     -0.099333
Ti	      6.06172      7.88361      4.50953         0.076672      0.000565      0.053539
Ti	     11.82332      5.88139      8.91315        -0.168231     -0.080609      0.151642
Ti	      9.93416      3.93743      4.58582        -0.169947      0.003947      0.084200
Ti	     11.82421      9.86811      8.92133        -0.170981      0.087395      0.145010
Ti	      9.88906      7.88410      4.51641        -0.238271     -0.003153      0.075640
O	      2.05440      1.97006      0.35526        -0.127283     -0.017571      0.057454
O	      4.01423      3.93789      4.79522        -0.174119     -0.001263      0.059647
O	      2.05481      5.92252      0.36247        -0.128737      0.013679      0.060081
O	      4.04239      7.88329      4.86368        -0.238850     -0.002582     -0.002820
O	      5.98386      1.96822      0.26503         0.187466     -0.003240     -0.053134
O	      8.01870      3.93743      4.58273         0.043700      0.002317      0.046450
O	      5.98472      5.92493      0.27246         0.184406      0.000606     -0.054510
O	      8.01337      7.88501      4.77862         0.116597     -0.008648     -0.050469
O	     10.03193      1.96993      0.22001        -0.032484      0.002041      0.058700
O	     12.03531      3.93753      4.71345         0.024316     -0.003831      0.031227
O	     10.03296      5.92228      0.22717        -0.034734     -0.002958      0.061162
O	     12.01776      7.88321      4.75324         0.067360     -0.001599      0.028394
O	      4.03933      1.97446      1.98856        -0.185077      0.000275      0.063999
O	      6.03273      3.93516      6.63671        -0.159715     -0.005739     -0.081771
O	      4.03970      5.91231      1.99595        -0.180263     -0.002503      0.068601
O	      6.04326      7.87954      6.52735        -0.132445      0.003274      0.029706
O	      7.99122      2.03908      1.93323         0.054801      0.029417     -0.051061
O	     10.02340      3.93378      6.54786         0.187948      0.000290     -0.052035
O	      7.99196      5.84649      1.94066         0.057630     -0.021600     -0.049682
O	     10.00244      7.88068      6.46888         0.183603      0.000735     -0.001900
O	     12.04093      1.97100      2.02001         0.025718     -0.004599     -0.018671
O	     14.05292      3.93303      6.59837        -0.044590     -0.001802     -0.027663
O	     12.04175      5.91349      2.02772         0.024866      0.005853     -0.019640
O	     14.07240      7.87860      6.59461        -0.068426      0.003177     -0.044499
O	      3.98184      3.93009      8.85659         0.019355     -0.001606      0.052900
O	     13.98056      1.96216      4.38916         0.083368      0.001248      0.024016
O	      3.99137      7.87588      8.84261        -0.010892     -0.003696      0.007334
O	     13.98090      5.91193      4.39674         0.085061     -0.000148      0.025054
O	      8.02173      3.92983      8.71958        -0.000997      0.001025      0.034407
O	      6.02480      1.96743      4.23704        -0.019702     -0.012608     -0.079438
O	      8.02267      7.87629      8.71654        -0.000518     -0.004761     -0.137040
O	      6.02625      5.91031      4.24452        -0.017323      0.008437     -0.081073
O	     12.10396      3.92936      8.77057        -0.088880     -0.000717     -0.022551
O	     10.07755      1.96817      4.17791         0.014798     -0.018777     -0.012349
O	     12.09946      7.87548      8.76920        -0.071152     -0.006596     -0.093531
O	     10.07780      5.90973      4.18509         0.015682      0.013484     -0.010361
O	      1.93892      3.94225      2.57854         0.066696      0.000460      0.035002
O	      3.97903      5.90294      7.11321        -0.035389     -0.005250     -0.015954
O	      1.94542      7.88791      2.59595         0.069733      0.002857      0.027574
O	      3.98042      9.85502      7.12055        -0.036571      0.006981     -0.014948
O	      6.04220      3.94193      2.54733         0.006317     -0.002096     -0.028255
O	      8.01680      5.89687      7.03668         0.011663      0.023765      0.091343
O	      6.02238      7.88773      2.57848         0.005360     -0.000753      0.056762
O	      8.01655      9.86113      7.04408         0.013035     -0.018345      0.090790
O	     10.01242      3.94216      2.42873        -0.006383     -0.000640     -0.031355
O	     12.10392      5.90962      6.89958        -0.074811      0.045813      0.020473
O	     10.05949      7.88780      2.46866        -0.007817      0.004255     -0.006656
O	     12.10464      9.84790      6.90659        -0.074059     -0.043618      0.024548
