# total energy = -674.30229498 eV
 
CRYSTAL
PRIMVEC
12.092971 -0.003746 0.004256 
0.000177 7.836870 0.018190 
4.030928 3.903586 9.076695 
PRIMCOORD
81 1
Li	     10.07351      3.90833      0.13281         0.003856      0.005646     -0.046074
Li	     12.12300      5.80760      4.29784        -0.003802     -0.004214     -0.048762
Li	     10.07382      0.00642      0.01215         0.003498     -0.006205     -0.023308
Li	     12.11851      2.00936      4.33135        -0.003708     -0.009155     -0.033552
Li	      8.01963      7.83058      2.58830         0.003416     -0.012781      0.025152
Li	     10.02538      9.78100      7.14452        -0.004419      0.000415      0.024290
Li	     14.13832      5.86766      7.00206         0.000662     -0.004758     -0.000784
Li	     12.09651      7.83697      2.44211        -0.002509     -0.004961      0.015129
Li	     14.11212      9.78313      7.04984         0.003247     -0.008994     -0.013549
Ti	      2.15762      1.99622      2.27060         0.194818      0.016238     -0.010020
Ti	      4.20756      3.89715      6.85538         0.182315     -0.029866      0.007053
Ti	      2.14603      5.85692      2.21768         0.213516     -0.056043     -0.008150
Ti	      4.19620      7.83999      6.80509         0.221794      0.031401      0.021043
Ti	      5.95664      1.95009      2.30544        -0.093362     -0.017490      0.138055
Ti	      8.00322      3.89150      6.85460        -0.044469     -0.023670      0.159094
Ti	      5.96150      5.88749      2.14545        -0.109081     -0.018083      0.057933
Ti	      8.02727      7.82446      6.66372        -0.010109      0.031145      0.051582
Ti	     10.00239      1.98577      2.25256        -0.099719      0.076728      0.116777
Ti	     11.95510      3.92415      6.75428        -0.117249      0.017066     -0.038413
Ti	     10.00625      5.83571      2.26501        -0.110934     -0.087006      0.086820
Ti	     11.99965      7.80495      6.72320        -0.137657     -0.013653      0.003150
Ti	      0.13572      1.99778      0.09149         0.192949      0.001203     -0.069114
Ti	      2.16680      3.93034      4.60044         0.145554      0.015159     -0.120711
Ti	      0.13671      5.85269      0.12888         0.232025     -0.020469     -0.064150
Ti	      2.17996      7.81443      4.58489         0.204374     -0.023261     -0.058289
Ti	      8.07166      5.95565      9.02279         0.007889      0.093219     -0.090207
Ti	      6.04339      3.97722      4.48077         0.011578      0.082831     -0.100090
Ti	      4.01291      5.85234      0.09954        -0.013604     -0.057900     -0.023917
Ti	      6.06293      7.79135      4.61758         0.036705     -0.049357     -0.014655
Ti	      7.87505      1.98092      0.01728        -0.221765     -0.007374      0.012607
Ti	      9.86376      3.90982      4.46056        -0.203779      0.018849     -0.009785
Ti	      7.94406      5.85411      0.09289        -0.173258     -0.022325      0.046079
Ti	      9.97272      7.80022      4.64117        -0.105949     -0.014345      0.038044
O	      2.03432      1.96287      0.32119        -0.131924      0.053081      0.121577
O	      4.06397      3.92022      4.89586        -0.092852      0.009488      0.068546
O	      2.01566      5.85180      0.24635        -0.156700      0.014689      0.113036
O	      4.04631      7.82583      4.84271        -0.172177      0.001520      0.093684
O	      6.01736      1.95968      0.25519         0.187286      0.046668      0.045649
O	      8.02952      3.91915      4.79055         0.187622     -0.002437      0.004512
O	      6.03238      5.86537      0.10574         0.127043      0.010472      0.034901
O	      8.04644      7.81887      4.62270         0.054061      0.001786      0.022968
O	     10.08831      1.94983      0.24443        -0.005769      0.010447      0.046688
O	     12.12059      3.91244      4.83236        -0.001819     -0.002496      0.113807
O	     10.07420      5.88144      0.23770         0.001843     -0.014656      0.032752
O	     12.12274      7.82669      4.75001        -0.008773     -0.006716      0.046648
O	      4.03849      1.92573      1.97377        -0.062440      0.043511      0.007622
O	      6.06612      3.90372      6.51511        -0.092691      0.006901     -0.004295
O	      4.03202      5.88742      2.11468        -0.056425      0.012447     -0.062042
O	      6.05499      7.83154      6.63016        -0.196548      0.003396     -0.073443
O	      8.03958      1.86246      1.95941         0.066100      0.031546     -0.091998
O	     10.04757      3.83108      6.48827         0.083515     -0.014405     -0.013333
O	      8.06240      5.95660      2.03816         0.108419      0.001578     -0.099046
O	     10.07688      7.89759      6.62466         0.118181     -0.016591     -0.077969
O	     12.09504      1.89792      2.05465        -0.017650      0.017912     -0.073977
O	     14.12764      3.90264      6.59273        -0.006638      0.009417     -0.045979
O	     12.07077      5.92925      2.09221        -0.034578     -0.001019     -0.060371
O	     14.10249      7.83174      6.57211         0.009683     -0.011507     -0.040567
O	      3.98825      3.90346      8.86389        -0.024564     -0.000287      0.010645
O	      1.99100      1.96013      4.29593        -0.019939      0.017177      0.002897
O	      3.95811      7.82643      8.86042        -0.016027     -0.025464      0.019709
O	      1.98646      5.86889      4.33579        -0.005573     -0.003201      0.039553
O	      8.03880      3.89828      8.75599         0.012187     -0.012113     -0.184574
O	      6.02799      1.95259      4.21329         0.015120      0.017430     -0.136767
O	      8.04740      7.82817      8.78566         0.009084     -0.089398      0.032824
O	      6.03670      5.87564      4.23511         0.016743     -0.050783      0.036428
O	     12.15107      3.90093      8.77337        -0.008226      0.004990     -0.026736
O	     10.17086      1.93082      4.25022        -0.035009      0.003509     -0.053704
O	     12.17226      7.81866      8.79396         0.000863     -0.007060     -0.003835
O	     10.17325      5.87455      4.27512        -0.031724      0.021233     -0.050375
O	      2.05394      3.91911      2.61699        -0.020925     -0.024156      0.042107
O	      3.99439      5.87008      7.16692        -0.005843      0.016927      0.026755
O	      1.97325      7.82955      2.60759        -0.010534      0.009242      0.051887
O	      3.98698      9.78666      7.16686        -0.018850     -0.010805      0.000241
O	      6.03263      3.92341      2.53621        -0.006823     -0.023867      0.095790
O	      8.06799      5.87780      7.07603        -0.004841     -0.021439      0.065732
O	      6.06592      7.82524      2.52919        -0.005741      0.021599     -0.009117
O	      8.09188      9.77646      7.06289        -0.005268      0.052622     -0.025884
O	     10.03987      3.90887      2.40848         0.018909     -0.016210     -0.010292
O	     12.14437      5.86830      7.05445         0.000863     -0.006771     -0.003562
O	     10.06326      7.83251      2.47859         0.016845      0.009092     -0.025523
O	     12.09002      9.78069      7.04790         0.019682      0.014713     -0.032848
