# total energy = -659.24739352 eV
 
CRYSTAL
PRIMVEC
12.268502 -0.001484 -0.000290 
0.001730 8.191438 0.016931 
4.088292 4.080652 8.505486 
PRIMCOORD
90 1
Li	      6.15060      8.18494      8.50560         0.011695     -0.001596      0.000552
Li	      4.12173      6.19369      4.31429        -0.010392     -0.027561      0.032021
Li	      2.02252      8.18566      0.15443        -0.003973     -0.008473      0.006752
Li	      4.09848     10.18361      4.28072        -0.010131      0.035937      0.010405
Li	     10.21193      8.17499      8.51364        -0.010954     -0.004943     -0.002351
Li	      8.17820      6.17060      4.31214         0.003324     -0.033630      0.012987
Li	      6.14292      8.19449      0.05977         0.002619      0.000304      0.017167
Li	      8.17932     10.20657      4.32467         0.002688      0.037860      0.031721
Li	     10.21702      4.09721      0.01803        -0.003779      0.000408      0.019549
Li	     12.23707      6.18893      4.32307         0.009908     -0.017642      0.030895
Li	     10.24043      8.19536      0.14396         0.001779     -0.003625     -0.004920
Li	     12.26268     10.18427      4.28698         0.008305      0.023313      0.011302
Li	      4.08883      4.08282      2.03003        -0.007223     -0.001015      0.008549
Li	      6.13893      6.16602      6.34465         0.000732     -0.021794     -0.018627
Li	      4.08605      8.19609      2.16007        -0.000666      0.000290     -0.005129
Li	      6.14893     10.19637      6.36052        -0.000376      0.024795     -0.013978
Li	      8.17379      4.09014      2.00919        -0.008393      0.005352     -0.007060
Li	     10.22731      6.13508      6.36690         0.001016     -0.008375     -0.020528
Li	      8.17177      8.19065      2.15284         0.008281     -0.000060     -0.007539
Li	     10.21741     10.22369      6.38082        -0.002769      0.012034     -0.020755
Li	     12.27481      4.08142      2.02913         0.007828     -0.000291      0.005976
Li	     14.30254      6.20159      6.38423         0.003264     -0.008503     -0.018501
Li	     12.28134      8.19388      2.16111        -0.005294     -0.002299      0.004037
Li	     14.30287     10.18618      6.43185         0.004002      0.009657     -0.005816
Ti	      2.04636      2.03153      2.13129        -0.014767     -0.003691      0.016669
Ti	      4.05762      4.07182      6.37586         0.008234     -0.032410      0.049712
Ti	      2.04576      6.15868      2.17506        -0.014997      0.020649      0.006883
Ti	      4.10939      8.18843      6.44870         0.016417      0.008324     -0.066781
Ti	      6.13082      2.01939      2.14293        -0.022662     -0.031185     -0.021736
Ti	      8.23694      4.09056      6.45321         0.072325      0.001703     -0.001282
Ti	      6.13474      6.16678      2.14779        -0.006645      0.029311     -0.015711
Ti	      8.18558      8.17618      6.39087         0.003807      0.012537     -0.097632
Ti	     10.22700      2.00392      2.14269         0.033398     -0.048754      0.001693
Ti	     12.23712      4.06491      6.41530        -0.058183     -0.038273     -0.006162
Ti	     10.22396      6.18007      2.14670         0.010967      0.041971     -0.018602
Ti	     12.23777      8.18831      6.42958        -0.030222      0.025562     -0.087740
Ti	      4.09545      6.15604      8.49390         0.021162     -0.022211      0.035734
Ti	     14.30535      4.17998      4.26438         0.006836      0.222361     -0.070796
Ti	      4.09349     10.19507      8.51175         0.021305      0.011916      0.038583
Ti	      2.04510      8.14379      4.23321        -0.002682     -0.047852      0.060697
Ti	      8.16883      6.12779      8.50482        -0.015077     -0.017140      0.012800
Ti	      6.13263      4.08859      4.26356        -0.000831      0.014556     -0.059649
Ti	      4.08680      6.14663      0.02072        -0.024044      0.006122      0.014782
Ti	      6.14880      8.19664      4.24495         0.017602     -0.004637      0.065627
Ti	     12.26795      6.12872      8.49974        -0.004786     -0.026432     -0.001578
Ti	     10.23076      4.08883      4.21679        -0.000434     -0.018138     -0.065987
Ti	      8.17545      6.14129      0.01585         0.015870      0.022288      0.014946
Ti	     10.21133      8.19421      4.24201        -0.005146      0.002548      0.101082
O	      6.12990      6.12025      8.48573         0.008266      0.005604      0.008430
O	      2.04269      6.15002      0.02477         0.005110     -0.011389      0.001506
O	      4.07490      8.19416      4.29459         0.002285     -0.024751      0.008418
O	      6.13524      2.04012      0.01005        -0.002695     -0.020424      0.029751
O	      6.13074      6.15145      0.01987         0.016214      0.016838      0.017105
O	      8.17671      8.19159      4.24421        -0.003136     -0.003457     -0.016848
O	     14.31274      6.13501      8.50728         0.007673      0.004561      0.028549
O	     14.31544     10.22476      8.51761         0.002852     -0.002815      0.022729
O	     12.28877      8.19141      4.28581         0.008981     -0.016076      0.013326
O	      4.09694      2.04714      2.13478         0.034807      0.008076     -0.056360
O	      4.08386      6.13329      2.15813         0.007386     -0.006892     -0.017558
O	      6.11871      8.18128      6.39642        -0.019587      0.000408      0.011073
O	      8.18032      2.05397      2.13152        -0.006223      0.002835     -0.029013
O	     10.22540      4.08546      6.28019        -0.022027      0.004361     -0.010614
O	      8.18073      6.13666      2.15000        -0.006347     -0.002915     -0.031085
O	     10.22932      8.17933      6.39104         0.006297      0.000814      0.008443
O	     12.26078      2.03655      2.12527        -0.033439      0.019362     -0.043085
O	     12.27434      6.14447      2.14803        -0.005857     -0.019732     -0.009422
O	     14.32294      8.21349      6.34981         0.009351     -0.010924     -0.011284
O	      4.08315      4.08412      8.42821         0.000197     -0.021794     -0.041972
O	     12.26966      4.09307      0.04523         0.000981      0.016023     -0.024714
O	     14.31296      6.10106      4.28410        -0.004295     -0.131982     -0.049097
O	      8.14817      4.08009      8.50457         0.011226     -0.013824     -0.018919
O	      6.14160      2.09541      4.26393         0.004016      0.009554     -0.058923
O	      4.08731      4.09795      0.01103        -0.012689      0.011713     -0.019288
O	      6.13953      6.09376      4.26662         0.000769     -0.011621     -0.057425
O	     12.29328      4.08289      8.48587        -0.008106      0.005147     -0.007256
O	     10.21658      2.09412      4.24466        -0.005692      0.019870     -0.071388
O	      8.18057      4.09313      0.02077         0.010562      0.003251     -0.029739
O	     10.22062      6.09049      4.24627         0.000793     -0.002335     -0.044694
O	      2.04024      4.05282      2.22473        -0.000283     -0.029207      0.017486
O	      4.07740      6.08571      6.39174         0.004155     -0.004576      0.044072
O	      2.04275      8.20946      2.14126        -0.003532      0.010347      0.009806
O	      4.09848     10.26792      6.40641         0.005345      0.033485      0.077931
O	      6.13490      4.09502      2.19902         0.007526      0.011754      0.038997
O	      8.17243      6.12570      6.39015         0.028177      0.014971      0.054112
O	      6.12893      8.18824      2.12305         0.004757     -0.000787      0.006087
O	      8.16969     10.23834      6.41326         0.016640     -0.020743      0.076212
O	     10.22699      4.09480      2.20259        -0.003640      0.008624      0.067311
O	     12.28548      6.12014      6.40050        -0.031143      0.024961      0.072878
O	     10.23509      8.18728      2.11789        -0.028191     -0.001458     -0.005820
O	     12.27072     10.23242      6.40824        -0.036419     -0.014122      0.068021
