# total energy = -659.24591424 eV
 
CRYSTAL
PRIMVEC
12.270954 -0.002038 -0.000429 
0.001361 8.195576 0.013093 
4.088827 4.078548 8.506052 
PRIMCOORD
90 1
Li	      2.04036      4.09899      0.01740        -0.000201      0.001477      0.022666
Li	      4.08201      6.19276      4.27538         0.014219     -0.030750      0.010558
Li	      2.06046      8.19529      0.13682         0.003411     -0.000620     -0.004217
Li	      4.05867     10.18394      4.32645         0.019660      0.021551      0.033942
Li	     10.24159      8.17179      8.50191         0.006836      0.001027     -0.000388
Li	      8.19012      6.19279      4.26956        -0.016374     -0.041521      0.008316
Li	      6.11365      8.20456      0.14737        -0.011144      0.008115      0.007733
Li	      8.21424     10.18036      4.31693        -0.018516      0.031152      0.030740
Li	     14.30164      8.17973      8.50900        -0.008489      0.002308     -0.000790
Li	     12.26830      6.16669      4.31287         0.006742     -0.042940      0.026443
Li	     10.23476      8.19524      0.05139         0.006069     -0.002078      0.022479
Li	     12.26863     10.20212      4.31394         0.005402      0.033702      0.015958
Li	      4.09516      4.10710      2.02821         0.010794      0.000016      0.007581
Li	      6.12516      6.17881      6.42477         0.003349     -0.014890     -0.010350
Li	      4.10276      8.18664      2.15984        -0.002781      0.008120     -0.004616
Li	      6.12664     10.16423      6.38708         0.000580      0.009667     -0.015119
Li	      8.18050      4.10462      2.02436        -0.013242      0.003365      0.014546
Li	     10.23816      6.16698      6.35058        -0.001890     -0.018020     -0.017800
Li	      8.17787      8.18466      2.15458        -0.005355      0.007267     -0.010554
Li	     10.23176     10.20014      6.34773        -0.007446      0.023347     -0.013763
Li	     12.26533      4.09611      2.00906        -0.009216     -0.002234     -0.003041
Li	     14.30931      6.14123      6.36490        -0.007106     -0.020700     -0.013916
Li	     12.26154      8.18939      2.14728         0.008737     -0.000359     -0.014096
Li	     14.31927     10.22754      6.36892         0.003677      0.012844     -0.022425
Ti	      2.04417      2.00533      2.13823         0.005247     -0.036777     -0.020099
Ti	      4.06023      4.10801      6.41379        -0.071542      0.043198     -0.006904
Ti	      2.04883      6.18729      2.14957         0.024793      0.043520     -0.039319
Ti	      4.06112      8.17438      6.43023        -0.033991     -0.017997     -0.102626
Ti	      6.13543      2.02842      2.16314         0.000266     -0.019893      0.009424
Ti	      8.14884      4.10218      6.37375         0.007566      0.015051      0.047328
Ti	      6.13671      6.15944      2.13662        -0.010322     -0.003577     -0.001257
Ti	      8.20096      8.17696      6.44503         0.025234      0.001817     -0.064717
Ti	     10.22463      2.01841      2.13614        -0.004218     -0.022711     -0.018012
Ti	     12.32712      4.08054      6.45138         0.082633     -0.006251     -0.009225
Ti	     10.22189      6.16990      2.14847        -0.013055      0.032031     -0.021139
Ti	     12.27399      8.18664      6.38565         0.007242     -0.003896     -0.091128
Ti	     12.26624      2.05688      0.00509         0.018191     -0.045994      0.015432
Ti	      2.05175      4.09181      4.21530        -0.002109      0.005201     -0.068328
Ti	      4.09018     10.22413      8.50177         0.012332      0.043235      0.035855
Ti	      2.03151      8.18247      4.23371        -0.009053     -0.006167      0.103233
Ti	      8.18512      6.16097      8.50433         0.006071     -0.007289      0.031128
Ti	      6.13138      3.99901      4.26155        -0.012809     -0.211680     -0.077378
Ti	      8.18811     10.20166      8.49731         0.015208      0.023043      0.050531
Ti	      6.13684      8.23167      4.22867        -0.016766      0.054223      0.063933
Ti	      8.17613      2.04978      0.00821        -0.016953     -0.023429      0.027114
Ti	     10.22150      4.09024      4.26193         0.010952      0.003811     -0.048961
Ti	     12.26066     10.22748      8.50704        -0.033034      0.025853      0.028742
Ti	     10.23877      8.17860      4.24214         0.028507     -0.005150      0.065583
O	      6.13730      6.13087      8.50861        -0.001556      0.007789      0.030091
O	      6.13554     10.22072      8.51256         0.002835     -0.005688      0.032887
O	      4.10793      8.18517      4.28146         0.023281      0.002712      0.032049
O	      6.13222      2.04548      0.01047         0.004152      0.010404      0.030721
O	     10.22098     10.23697      8.48880         0.012355     -0.007707      0.021727
O	      8.16649      8.18173      4.28745        -0.011760      0.011546      0.031159
O	     10.22275      2.04272      0.00741        -0.000477     -0.006352      0.025202
O	     10.22773      6.15618      0.01435        -0.009281      0.002432      0.028466
O	     12.26818      8.18291      4.23574         0.006108      0.000957      0.024128
O	      4.09405      2.04264      2.14101        -0.005300      0.011394     -0.032937
O	      4.08205      6.15333      2.13049        -0.028904     -0.011861     -0.052480
O	      6.14456      8.15050      6.34670         0.010202      0.018325     -0.018840
O	      8.17445      2.05269      2.14724         0.001837      0.009762     -0.028890
O	      8.18948      6.14131      2.13744         0.036143     -0.004253     -0.059270
O	     10.21045      8.18394      6.39809        -0.027629     -0.001807     -0.029952
O	     12.27156      2.04752      2.14168        -0.002681      0.008123     -0.053497
O	     14.31726      4.08605      6.27370        -0.022210     -0.000190      0.006391
O	     12.27242      6.13375      2.13672        -0.008902      0.003840     -0.048750
O	     14.32174      8.18368      6.38502         0.005685     -0.004360      0.002605
O	      4.11571      4.07929      8.48109        -0.015658     -0.014230     -0.018528
O	      2.04089      2.08923      4.23893        -0.001767      0.016815     -0.066641
O	     12.27416      4.10132      0.02230        -0.015332      0.002489     -0.055620
O	     14.30787      6.08534      4.24720         0.005675     -0.020208     -0.062511
O	      8.17450      4.08120      8.42318         0.001292      0.007192     -0.020026
O	      6.13591      2.07839      4.27489        -0.010126      0.117207     -0.066990
O	      4.09120      4.10259      0.04552         0.006667     -0.009499     -0.062261
O	     12.23881      4.08117      8.50114         0.018144      0.017485     -0.023955
O	     10.22751      2.08539      4.25862         0.011980      0.015026     -0.072817
O	      8.17629      4.09728      0.00805         0.013120      0.006150     -0.036367
O	     10.23189      6.08683      4.26948         0.006720     -0.026594     -0.073606
O	      2.04819      4.09353      2.20279        -0.003979      0.000578      0.075440
O	      4.09279      6.12972      6.39643        -0.037995      0.015282      0.074690
O	      2.05392      8.19381      2.10774        -0.009965     -0.003211      0.045743
O	      4.10887     10.24911      6.40685        -0.030583     -0.042891      0.062830
O	      6.13083      4.13630      2.22320         0.000727      0.023398      0.022205
O	      8.18937      6.09727      6.39668        -0.001780     -0.027050      0.079328
O	      6.13229      8.17271      2.13362         0.003964     -0.006184      0.037549
O	      8.16948     10.28183      6.39562        -0.003137      0.000956      0.050403
O	     10.22510      4.09150      2.20100         0.008930      0.003530      0.010984
O	     12.25881      6.12414      6.40056         0.029988      0.028560      0.077678
O	     10.21979      8.19295      2.11493        -0.000746     -0.000506      0.039527
O	     12.26414     10.24029      6.39294         0.031857     -0.019381      0.063040
