# total energy = -659.53524577 eV
 
CRYSTAL
PRIMVEC
12.283207 -0.001703 0.002055 
0.001591 8.180926 0.015417 
4.094743 4.073841 8.481231 
PRIMCOORD
90 1
Li	      6.14382      8.16535      8.47769        -0.001348     -0.001554      0.004801
Li	      4.09375      6.17755      4.28101         0.000439     -0.050629      0.026705
Li	      2.04779      8.18289      0.12739        -0.000041      0.003179     -0.011575
Li	      4.09546     10.17128      4.29264         0.000216      0.050258      0.024190
Li	     10.23632      8.16476      8.48015        -0.003867     -0.001126      0.003501
Li	      8.18912      6.17466      4.28216        -0.003280     -0.053022      0.023164
Li	      6.14185      8.18205      0.12810         0.002864      0.002693     -0.014341
Li	      8.19026     10.17204      4.29138        -0.003310      0.052119      0.022036
Li	     14.32989      8.16361      8.48143        -0.003592     -0.000992     -0.002805
Li	     12.28290      6.17498      4.28255         0.000829     -0.052433      0.023401
Li	     10.23727      8.18126      0.12847         0.000455      0.002719     -0.005545
Li	     12.28291     10.17126      4.29453         0.003686      0.049990      0.021792
Li	      4.09393      4.08745      2.02298        -0.000699     -0.002715      0.016802
Li	      6.14337      6.17162      6.34099        -0.006240     -0.049008     -0.022683
Li	      4.09618      8.17816      2.15532        -0.005857      0.001427     -0.000486
Li	      6.14244     10.16803      6.34943        -0.000444      0.047246     -0.018009
Li	      8.18984      4.08582      2.02607        -0.009280     -0.001143      0.011705
Li	     10.23538      6.17010      6.34311        -0.000624     -0.053113     -0.021900
Li	      8.19126      8.17757      2.15556         0.003977      0.000070     -0.002814
Li	     10.23770     10.16818      6.35111        -0.000687      0.050629     -0.015644
Li	     12.28388      4.08549      2.02626         0.001290     -0.001997      0.015965
Li	     14.32952      6.16999      6.34362         0.002442     -0.050286     -0.025734
Li	     12.28258      8.17717      2.15832         0.000884      0.000456     -0.006213
Li	     14.33061     10.16612      6.35487         0.001841      0.051440     -0.025215
Ti	      2.04754      2.02010      2.13229        -0.006790      0.016387     -0.041189
Ti	      4.09439      4.07953      6.37076        -0.002784      0.001615      0.021551
Ti	      2.04764      6.15518      2.13601        -0.004532     -0.015148     -0.017454
Ti	      4.09414      8.16803      6.39516         0.004689      0.006770     -0.106655
Ti	      6.14177      2.01925      2.13064        -0.004941      0.029113     -0.022723
Ti	      8.18909      4.07817      6.37032        -0.007355      0.004786      0.026060
Ti	      6.14207      6.15484      2.13569        -0.004515     -0.025745     -0.003603
Ti	      8.19128      8.16909      6.38879        -0.026417     -0.001451     -0.071470
Ti	     10.23614      2.02063      2.13261        -0.000248     -0.005570     -0.035426
Ti	     12.28134      4.07871      6.37247         0.004635     -0.004464      0.021195
Ti	     10.23650      6.15171      2.13712        -0.000967      0.005990     -0.016238
Ti	     12.28100      8.16677      6.39145         0.006940      0.008085     -0.090218
Ti	     12.28206      2.06791      0.00745         0.009437     -0.025398      0.021167
Ti	     14.32938      4.08118      4.24884         0.005723      0.015020     -0.023294
Ti	     12.28334      6.11248      0.01755         0.012237      0.024791      0.015499
Ti	      2.04541      8.17659      4.24164         0.021549     -0.014224      0.080852
Ti	      4.09369      2.06783      0.00647        -0.001645     -0.011300      0.024920
Ti	      6.14155      4.08325      4.24585         0.001050      0.009178     -0.019255
Ti	      4.09512      6.11564      0.01500        -0.003336      0.005430      0.021713
Ti	      6.14464      8.17526      4.24091        -0.012772     -0.009826      0.105316
Ti	      8.18763      2.06733      0.00803         0.005355     -0.017165      0.017980
Ti	     10.23595      4.08233      4.24818         0.003313      0.007694     -0.018451
Ti	      8.18921      6.11354      0.01789         0.000530      0.019201      0.009302
Ti	     10.23550      8.17432      4.24839         0.021123     -0.008786      0.064290
O	      6.14090      6.11803      8.48105         0.004427     -0.004239      0.054700
O	      6.14245     10.21350      8.48758        -0.001223      0.000739      0.056930
O	      4.09497      8.17498      4.24912         0.002867      0.002577      0.038214
O	     10.23540      6.11653      8.48119         0.003397     -0.002185      0.047860
O	     10.23611     10.21365      8.48833         0.004191     -0.001968      0.051349
O	      8.18805      8.17353      4.24493         0.007456      0.004963      0.037079
O	     14.32995      6.11548      8.48211         0.002879      0.003544      0.053862
O	     14.33113     10.21238      8.48921        -0.002039     -0.002574      0.056380
O	     12.28509      8.17326      4.24674        -0.004590      0.003985      0.044066
O	      4.09408      2.04529      2.13777        -0.001058     -0.003580     -0.050331
O	      4.09463      6.12979      2.14502         0.004897      0.005476     -0.056551
O	      6.14013      8.16895      6.38687         0.003959      0.002894     -0.048034
O	      8.18926      2.04454      2.13870        -0.006700     -0.000674     -0.048518
O	      8.18958      6.12824      2.14653        -0.002275      0.005950     -0.054511
O	     10.23583      8.16825      6.39148         0.001301      0.001874     -0.042802
O	     12.28357      2.04326      2.13908        -0.006297      0.003853     -0.048881
O	     12.28424      6.12910      2.14717        -0.005569     -0.003690     -0.055861
O	     14.33151      8.16733      6.38844        -0.009285      0.001013     -0.037232
O	      4.09414      4.07491      8.42149        -0.005540      0.002226     -0.019094
O	     14.32877      2.08327      4.25739         0.000964      0.009254     -0.096965
O	     12.28328      4.09069      0.04058         0.000797     -0.002934     -0.046760
O	     14.32984      6.08136      4.26112        -0.000646     -0.017623     -0.094430
O	      8.18797      4.07543      8.42280        -0.000061     -0.003740     -0.019980
O	      6.14121      2.08463      4.25423        -0.000031      0.008026     -0.099652
O	      4.09448      4.09172      0.03652         0.004181     -0.000911     -0.050613
O	      6.14104      6.08280      4.26000         0.005032     -0.019187     -0.102683
O	     12.28243      4.07323      8.42390        -0.001271      0.006005     -0.013256
O	     10.23580      2.08202      4.25679        -0.005403      0.019422     -0.098757
O	      8.18932      4.09104      0.03852         0.000846     -0.003691     -0.047318
O	     10.23590      6.08303      4.26172        -0.002090     -0.023648     -0.094980
O	      2.04744      4.08802      2.19496         0.001469     -0.000233      0.028777
O	      4.09479      6.07799      6.36283        -0.000294     -0.013685      0.107680
O	      2.04854      8.17747      2.11472        -0.006075      0.002549      0.050190
O	      4.09589     10.26176      6.37390        -0.004435      0.008318      0.092836
O	      6.14177      4.08715      2.19425         0.000660      0.001483      0.026690
O	      8.18835      6.07850      6.36366         0.009861     -0.016150      0.097902
O	      6.14151      8.17729      2.11497         0.003294     -0.000361      0.042916
O	      8.18992     10.25993      6.37199         0.004215      0.017149      0.093261
O	     10.23683      4.08650      2.19519        -0.000290     -0.000975      0.021684
O	     12.28240      6.07753      6.36423         0.003130     -0.013925      0.101750
O	     10.23647      8.17594      2.11822        -0.002051      0.005574      0.046264
O	     12.28402     10.25984      6.37515        -0.002536      0.009912      0.091847
