# total energy = -659.24618798 eV
 
CRYSTAL
PRIMVEC
12.257968 -0.001763 0.004447 
0.001551 8.188425 0.018288 
4.087962 4.080479 8.506897 
PRIMCOORD
90 1
Li	      2.05578      4.09557      0.01837        -0.001627      0.000999      0.017039
Li	      4.05521      6.19042      4.32183         0.007329     -0.029498      0.017234
Li	      2.03248      8.19237      0.15909         0.002797     -0.004515     -0.020886
Li	      4.08234     10.17856      4.28253         0.007593      0.037736      0.005654
Li	     10.22770      8.18215      8.50881         0.001334     -0.001445     -0.004849
Li	      8.20539      6.18595      4.32953        -0.010249     -0.028811      0.014777
Li	      6.11856      8.17930      0.07167         0.002328      0.000111      0.009854
Li	      8.18092     10.18154      4.29045        -0.009210      0.030428      0.000729
Li	     14.28145      8.17063      8.51967         0.004406     -0.001636     -0.004996
Li	     12.26117      6.16620      4.31851        -0.000113     -0.032477      0.002143
Li	     10.24090      8.19154      0.14612         0.001003     -0.002903     -0.026656
Li	     12.25991     10.20568      4.33763        -0.000871      0.032092      0.015821
Li	      4.09191      4.08186      2.03134         0.006202      0.001117      0.033180
Li	      6.14126      6.20235      6.38213        -0.003070     -0.026376     -0.010969
Li	      4.09109      8.18924      2.15797         0.001191      0.000425      0.004720
Li	      6.14170     10.18061      6.43530        -0.000859      0.026582     -0.010244
Li	      8.16562      4.07898      2.00805        -0.008367      0.002304      0.010132
Li	     10.21013      6.13071      6.36155        -0.001631     -0.015017     -0.009825
Li	      8.16290      8.19088      2.16146         0.004631      0.000439     -0.002423
Li	     10.22456     10.22241      6.37907        -0.002087      0.015184     -0.010943
Li	     12.26243      4.08623      2.02085         0.001422     -0.000081      0.017119
Li	     14.29904      6.16136      6.34553         0.002245     -0.025221     -0.009434
Li	     12.26823      8.18781      2.16005        -0.003339      0.001073      0.001286
Li	     14.28971     10.19162      6.36328         0.002424      0.027138     -0.001325
Ti	      2.04537      2.02299      2.14418         0.020670      0.014677     -0.011193
Ti	      4.12146      4.06414      6.37838        -0.011392     -0.011192      0.027084
Ti	      2.04139      6.15909      2.14768         0.016694     -0.016205     -0.019012
Ti	      4.06781      8.18580      6.45126        -0.027784      0.007469     -0.040733
Ti	      6.12640      2.02283      2.12722        -0.008493      0.006385      0.021414
Ti	      8.20413      4.06501      6.42052         0.061044     -0.027618     -0.057081
Ti	      6.12968      6.16173      2.17488        -0.012731      0.000317      0.025170
Ti	      8.20450      8.18588      6.42678         0.029618      0.010213     -0.080884
Ti	     10.21377      1.99943      2.14447        -0.000598     -0.008016     -0.001184
Ti	     12.20062      4.08940      6.45677        -0.085141      0.020768     -0.048054
Ti	     10.22017      6.17789      2.14570        -0.015189      0.015518     -0.004363
Ti	     12.25293      8.17087      6.38979        -0.012180     -0.001657     -0.063294
Ti	      4.08868      6.15706      8.49176         0.004059     -0.021734     -0.005292
Ti	      2.04745      4.08634      4.26080         0.002211      0.009466     -0.007757
Ti	     16.34143     10.19063      8.52436         0.023379      0.025330      0.007838
Ti	     14.28899      8.19406      4.25111        -0.024654     -0.016737      0.034537
Ti	      8.17887      6.12925      8.50693         0.001771     -0.029826      0.042358
Ti	      6.13780      4.17862      4.26090         0.004187      0.193954     -0.035029
Ti	      8.17841     10.21459      8.52099        -0.020505      0.021604      0.068263
Ti	      6.13215      8.13811      4.23534         0.003862     -0.036653      0.039779
Ti	     12.25581      6.12582      8.49977        -0.009348     -0.035726      0.016556
Ti	     10.20870      4.08792      4.21329         0.002620     -0.016599     -0.055119
Ti	      8.17637      6.14253      0.01979         0.005786      0.025424      0.041186
Ti	     10.23014      8.19114      4.25300         0.016643      0.001938      0.026886
O	      6.12717      6.12980      8.51020        -0.003680      0.017351      0.020156
O	      2.04340      6.14389      0.01525         0.006621     -0.011606      0.009786
O	      4.09982      8.19014      4.29808         0.024113     -0.018287     -0.002468
O	     10.21995      6.11479      8.49131         0.004311      0.013392      0.004835
O	      6.13024      6.15042      0.03096         0.020683     -0.009352     -0.017198
O	      8.15579      8.18818      4.28518        -0.029969     -0.017805      0.000624
O	     14.30622      6.12039      8.51309         0.005267      0.016596      0.021294
O	     14.30504     10.22580      8.52069        -0.015641     -0.010646      0.018342
O	     12.26569      8.18899      4.24701         0.009009     -0.003812     -0.000387
O	      4.07646      2.04546      2.13277        -0.014566     -0.012542     -0.044480
O	      4.09266      6.13227      2.15533        -0.011800      0.009697     -0.014974
O	      6.11726      8.21080      6.34927         0.006719     -0.009045      0.024253
O	      8.18232      2.04495      2.12858         0.027884     -0.012057     -0.042838
O	     10.21297      4.08321      6.27546         0.010311      0.001241      0.019949
O	      8.16729      6.12969      2.15635         0.009978      0.007702     -0.024373
O	     10.21284      8.17722      6.39444        -0.022424      0.006009      0.018626
O	     12.25812      2.04803      2.13005        -0.014951     -0.012748     -0.022203
O	     12.26016      6.13829      2.15150        -0.006805      0.004626     -0.017664
O	     14.31862      8.17469      6.40039         0.015076      0.008295      0.005448
O	      4.09667      4.08291      8.42835        -0.006727     -0.009058     -0.003618
O	     14.29315      2.09243      4.26821         0.002693      0.014850     -0.043160
O	     12.26062      4.09229      0.04916        -0.003500     -0.008428     -0.028512
O	     14.29750      6.08925      4.26798         0.005903     -0.016634     -0.037397
O	      8.14699      4.08155      8.48612         0.015458      0.011374     -0.002872
O	      4.08845      4.08948      0.02340        -0.008899      0.008406     -0.026615
O	      6.12975      6.09755      4.28698         0.010374     -0.103775     -0.069197
O	     12.28576     12.26407      8.52335        -0.019051     -0.001774     -0.020356
O	     10.22470      2.09165      4.24381        -0.010850      0.042436     -0.033510
O	     12.25766      8.17773      8.51482         0.011608     -0.007496     -0.006621
O	     10.22207      6.09008      4.24863        -0.008061     -0.022924     -0.033166
O	      2.04256      4.09410      2.19968         0.000972      0.007898      0.006462
O	      4.09462      6.08105      6.39615         0.007783      0.008933      0.041839
O	      2.04694      8.18431      2.12935        -0.005649      0.000836      0.025848
O	      4.08272     10.26410      6.40773        -0.012564     -0.000679      0.058612
O	      6.13386      4.04946      2.22502         0.010228     -0.037979     -0.016560
O	      8.15392      6.11875      6.40216         0.021382      0.021152      0.054677
O	      6.12631      8.20539      2.13687        -0.000702      0.011032     -0.011023
O	      8.17366     10.23037      6.41232         0.036641     -0.014090      0.062920
O	     10.21213      4.09262      2.20191        -0.002106      0.009603      0.049101
O	     12.27153      6.12179      6.38840        -0.013888      0.000568      0.046346
O	     10.21951      8.18251      2.12033        -0.002015     -0.004655      0.038090
O	     12.26821     10.23413      6.42019        -0.017176     -0.015352      0.032766
