# total energy = -659.20854752 eV
 
CRYSTAL
PRIMVEC
12.262569 -0.001872 0.000412 
0.001467 8.178433 0.015607 
4.086664 4.072691 8.509201 
PRIMCOORD
90 1
Li	      6.12413      8.16332      8.50808         0.003369     -0.000120     -0.007745
Li	      4.09470      6.16797      4.31944        -0.004762     -0.033311      0.004140
Li	      2.03906      8.18079      0.14222         0.002476      0.001095     -0.029714
Li	      4.09411     10.17684      4.32741        -0.002073      0.030586      0.000221
Li	     10.21890      8.16287      8.51529        -0.004095      0.002538     -0.002200
Li	      8.17716      6.13538      4.31387         0.003858     -0.011879      0.010027
Li	      6.10965      8.18011      0.14686         0.005519      0.002856     -0.021938
Li	      8.17835     10.20708      4.32171         0.004939      0.014726      0.007389
Li	     14.31141      8.16298      8.51404        -0.000480      0.002714     -0.010168
Li	     12.25500      6.17629      4.30725         0.003253     -0.037711      0.005526
Li	     10.25394      8.17852      0.13150        -0.007300      0.000585     -0.035616
Li	     12.25621     10.16500      4.31424         0.001423      0.034720      0.005776
Li	      4.06885      4.08645      2.00969         0.005431     -0.000531      0.031316
Li	      6.12886      6.15955      6.33743         0.002741     -0.037778     -0.003968
Li	      4.09695      8.17707      2.15906        -0.004056      0.001256      0.001468
Li	      6.12998     10.17635      6.34506         0.005063      0.038497     -0.003037
Li	      8.17240      4.08643      2.08617         0.000354      0.002512     -0.005223
Li	     10.22362      6.14843      6.35124        -0.001554     -0.035654     -0.003530
Li	      8.17673      8.17526      2.26899         0.005089     -0.000984      0.002299
Li	     10.22382     10.18551      6.35914         0.002419      0.039434     -0.003744
Li	     12.28590      4.08591      1.99900        -0.006671     -0.001727      0.025844
Li	     14.30048      6.15451      6.35822        -0.003990     -0.035114     -0.004902
Li	     12.25382      8.17466      2.16383         0.004585      0.000139     -0.001528
Li	     14.30095     10.17888      6.36450        -0.004877      0.039081     -0.004378
Ti	      2.04381      2.01225      2.13513        -0.004798      0.041044     -0.019127
Ti	      4.08304      4.07961      6.38369        -0.015960     -0.003247      0.014402
Ti	      2.04541      6.16221      2.14422        -0.013293     -0.038614     -0.038869
Ti	      4.08601      8.16863      6.43032        -0.013942     -0.005232     -0.061858
Ti	      6.11651      2.04044      2.14694        -0.016245      0.015708     -0.064416
Ti	      8.17871      4.07817      6.43477         0.006976      0.002221      0.061115
Ti	      6.11527      6.13305      2.15583        -0.005464     -0.014567     -0.072026
Ti	      8.17666      8.16731      6.43117         0.012591     -0.001756     -0.058376
Ti	     10.23441      2.04167      2.13862         0.020051      0.035895     -0.069210
Ti	     12.25420      4.07839      6.33887         0.004908     -0.007345      0.037163
Ti	     10.23570      6.13061      2.15069         0.012546     -0.033315     -0.083424
Ti	     12.25871      8.16622      6.43097        -0.001663      0.004809     -0.026705
Ti	      4.09004      6.14236      8.50866        -0.004467     -0.010855      0.020925
Ti	      2.04416      4.08364      4.23337        -0.018112     -0.001752     -0.000492
Ti	      4.09289     10.18507      8.51349        -0.011496      0.010179      0.042447
Ti	      2.04435      8.17288      4.23285         0.002256     -0.000618      0.108281
Ti	      8.16887      6.16192      8.51015         0.005604      0.006070      0.019335
Ti	      6.18740      4.08209      4.19596         0.089584     -0.000328      0.081991
Ti	      8.16978     10.16543      8.51836         0.002441     -0.005389      0.022749
Ti	      6.13288      8.17248      4.26278         0.021662      0.002845      0.081406
Ti	      8.17715      2.08451      0.01197         0.008470      0.044129      0.046988
Ti	     10.16180      4.08085      4.17844        -0.080110      0.011784      0.083307
Ti	      8.17815      6.09603      0.01614         0.008188     -0.044870      0.061646
Ti	     10.21861      8.17079      4.26490        -0.002051      0.002730      0.103222
O	      6.13018      6.11670      8.50657         0.009531      0.011722      0.019271
O	      6.13034     10.21155      8.51390         0.009415     -0.013872      0.014746
O	      4.07534      8.17163      4.27841         0.001849      0.000997     -0.006693
O	      6.14029      2.02683      0.01854         0.004249      0.031904      0.034481
O	      8.17892      4.08210      4.36057         0.012142     -0.001380     -0.110417
O	      6.14213      6.15509      0.02775        -0.001037     -0.037342      0.026453
O	      8.17501      8.17130      4.28827         0.001298      0.003366     -0.001952
O	     10.20725      2.02108      0.00774        -0.015427      0.028042      0.044203
O	     10.20815      6.15843      0.01866        -0.014470     -0.030929      0.034834
O	     12.27767      8.17045      4.27196         0.001097     -0.001046     -0.021254
O	      4.08464      2.04539      2.14150         0.006754     -0.024576     -0.016070
O	      4.08571      6.12884      2.15048         0.000669      0.023035     -0.012684
O	      6.12574      8.16754      6.40839        -0.009614      0.001875     -0.009328
O	      8.17462      2.03367      2.10527         0.000488     -0.002211     -0.007746
O	      8.17629      6.13920      2.11064        -0.001021      0.006633     -0.006643
O	     10.22358      8.16719      6.41407        -0.001470     -0.004450     -0.010454
O	     12.26812      2.04713      2.13902        -0.015476     -0.023442     -0.018308
O	     12.26796      6.12422      2.14547        -0.004425      0.021935     -0.013140
O	     14.30368      8.16709      6.39468        -0.001401     -0.004910      0.002940
O	      4.09071      4.07502      8.44195         0.010975      0.000565      0.000022
O	     14.30195      2.08816      4.25303         0.000740     -0.027192     -0.051617
O	     12.26438      4.08891      0.03457         0.013570      0.001820     -0.040881
O	     14.30291      6.07399      4.26107         0.000623      0.032193     -0.048909
O	      8.16885      4.07411      8.44262         0.001465      0.001579     -0.037047
O	      6.12217      2.04910      4.25271         0.016813     -0.009813     -0.037336
O	      4.08440      4.09111      0.04744        -0.007735      0.001581     -0.038183
O	      6.12396      6.11637      4.25984         0.008969      0.006868     -0.032549
O	     10.23022      2.04612      4.24782        -0.028633     -0.027514     -0.051031
O	      8.17520      4.08959      0.01057         0.002111      0.006750     -0.080951
O	     10.22989      6.11728      4.25647        -0.021133      0.021354     -0.046590
O	      2.04654      4.08725      2.19709         0.008846      0.004148     -0.011055
O	      4.08579      6.07341      6.39003         0.001938      0.002744      0.043510
O	      2.04443      8.17658      2.11581        -0.002256     -0.003410      0.029068
O	      4.08614     10.26367      6.39766         0.002907      0.003435      0.037849
O	      6.11050      4.08743      2.14119         0.007118     -0.003631      0.026414
O	      8.17774      6.07171      6.40844         0.005425     -0.011716      0.053788
O	      6.13157      8.17613      2.15261        -0.015153     -0.003873      0.015868
O	      8.17924     10.26320      6.41713        -0.000239      0.008566      0.047246
O	     10.24315      4.08609      2.12557        -0.020179     -0.011635      0.031913
O	     12.25861      6.05614      6.40651         0.007357     -0.011939     -0.006572
O	     10.22177      8.17553      2.15217         0.002363     -0.008609      0.019400
O	     12.26007     10.27749      6.41427         0.002620      0.016921     -0.011388
