# total energy = -659.29183311 eV
 
CRYSTAL
PRIMVEC
12.272313 -0.001574 0.002522 
0.001672 8.190591 0.018355 
4.091465 4.081662 8.506088 
PRIMCOORD
90 1
Li	      2.04693      4.09854      0.01918         0.005005      0.004376     -0.006809
Li	      4.06950      6.18342      4.27611         0.002574     -0.023771     -0.004250
Li	      2.04853      8.19290      0.09081         0.007597      0.001197      0.002157
Li	      4.06351     10.18262      4.33594         0.002883      0.022840      0.004321
Li	     10.22794      8.17922      8.51006        -0.001009     -0.003985     -0.004023
Li	      8.20549      6.18214      4.27855        -0.007646     -0.025819      0.001578
Li	      6.15263      8.18903      0.16247        -0.003244      0.001736     -0.009099
Li	      8.21467     10.18166      4.33337        -0.006169      0.025557      0.007193
Li	     14.32060      8.18208      8.51654        -0.002710      0.004132     -0.006669
Li	     12.27535      6.16776      4.31598         0.003417     -0.030784      0.005589
Li	     10.21329      8.18821      0.16084        -0.000713      0.001573     -0.010690
Li	     12.27391     10.19496      4.31351         0.003422      0.031139      0.004012
Li	      4.08704      4.10020      2.01423        -0.000163     -0.001321      0.009869
Li	      6.13712      6.14653      6.46510         0.007600     -0.007525     -0.007480
Li	      4.09544      8.18174      2.16388         0.012137     -0.002401      0.009226
Li	      6.13652     10.21169      6.40651         0.004767      0.014377     -0.006093
Li	      8.18685      4.10234      2.02994        -0.006669     -0.002905      0.010738
Li	     10.23161      6.17209      6.35080        -0.002883     -0.023741     -0.000171
Li	      8.18078      8.17786      2.16983        -0.002540      0.000278      0.015173
Li	     10.21903     10.19576      6.34910        -0.001607      0.022973     -0.001885
Li	     12.27467      4.09112      2.02004         0.000928      0.002210      0.016476
Li	     14.31732      6.17027      6.34922        -0.005505     -0.024747     -0.009661
Li	     12.27472      8.18667      2.15564        -0.005003     -0.002704      0.010605
Li	     14.33266     10.19455      6.35552        -0.004632      0.025725     -0.008143
Ti	      2.04485      2.02214      2.13950         0.014744      0.019528     -0.006651
Ti	      4.13615      4.10956      6.42898         0.075716      0.004110     -0.064952
Ti	      2.04617      6.16565      2.14612         0.009395     -0.013295     -0.026404
Ti	      4.07564      8.17313      6.42154        -0.014200      0.006389     -0.095485
Ti	      6.13859      2.01125      2.13969         0.000157     -0.019518      0.009866
Ti	      8.13820      4.10467      6.42480        -0.088460      0.020269     -0.034167
Ti	      6.13816      6.15558      2.16963        -0.012253      0.013818     -0.004423
Ti	      8.19966      8.17657      6.42052         0.011452      0.004164     -0.092417
Ti	     10.22837      2.02557      2.14032        -0.023401     -0.003082     -0.010025
Ti	     12.27319      4.08081      6.41074         0.012750      0.022417      0.015529
Ti	     10.22798      6.15962      2.15467         0.004067     -0.001813     -0.023335
Ti	     12.27614      8.19081      6.41210        -0.010751     -0.017870     -0.061815
Ti	     16.35275      6.13614      8.51027        -0.024383     -0.007798      0.054994
Ti	      2.05644      4.09089      4.25954        -0.016468      0.006749     -0.028756
Ti	      4.08914     10.22553      8.50946        -0.021941      0.003832      0.065369
Ti	     14.31096      8.17868      4.25303         0.011778     -0.007322      0.061201
Ti	      8.19404      6.13733      8.50603         0.040495     -0.021568      0.044709
Ti	      6.13445      4.00320      4.21884        -0.002462     -0.184749     -0.021193
Ti	      8.19530     10.22518      8.51037         0.025102      0.024836      0.044417
Ti	      6.13738      8.21646      4.26287         0.005567      0.045254      0.064820
Ti	      8.18384      2.07759      0.01297        -0.014366     -0.029040      0.008694
Ti	     10.22079      4.09100      4.26374         0.018595      0.002787     -0.014035
Ti	     12.26729     10.19675      8.50898        -0.005674      0.022878      0.034465
Ti	     10.23986      8.17609      4.25511        -0.005753     -0.000438      0.047204
O	      2.04720      2.03953      0.00836        -0.006160      0.006182      0.019358
O	      6.13947     10.23837      8.51728         0.002110     -0.009739      0.014673
O	      4.10016      8.18013      4.28096         0.016724      0.012655      0.021687
O	     10.23214      6.12446      8.50755        -0.002384      0.016671      0.035986
O	     10.23359     10.23590      8.50317        -0.000288     -0.019475      0.019683
O	      8.17620      8.17794      4.28351        -0.012222      0.009440      0.025624
O	     10.22348      2.04298      0.00743         0.014731      0.015265      0.031011
O	     10.22339      6.15077      0.01802         0.000081     -0.017237      0.026262
O	     12.27505      8.18000      4.25878         0.000994      0.007451      0.010565
O	      4.09385      2.04816      2.13834        -0.015037     -0.004547     -0.033786
O	      6.13665      4.12849      6.23254         0.000694     -0.006321      0.025775
O	      4.08356      6.13874      2.13919        -0.024321      0.006315     -0.044225
O	      6.13825      8.15938      6.35702        -0.003674      0.001358     -0.009175
O	      8.17928      2.04608      2.14429         0.005663     -0.004023     -0.031712
O	      8.19239      6.13921      2.14029         0.028093      0.008475     -0.049602
O	     10.23501      8.18523      6.40384        -0.005813     -0.010040     -0.014035
O	     12.27501      2.05172      2.14456         0.004991     -0.013370     -0.048638
O	     12.27369      6.12637      2.14861        -0.005225      0.023227     -0.044633
O	     14.31350      8.18276      6.40509         0.005218     -0.004141      0.001294
O	     16.33907      4.07809      8.49181         0.019318      0.010939     -0.036145
O	     14.31621      2.08419      4.25978         0.002727      0.002696     -0.054356
O	     12.27482      4.10092      0.02293         0.001378     -0.013501     -0.031303
O	     14.30933      6.08573      4.27010         0.010422     -0.010045     -0.051756
O	      8.20948      4.08093      8.48370        -0.013710      0.001253     -0.035563
O	      6.13568      2.06950      4.22624        -0.001628      0.104043     -0.088621
O	      4.09362      4.10064      0.01972        -0.004258     -0.011588     -0.024225
O	     12.27311      4.08762      8.44892        -0.009026     -0.018478     -0.037026
O	     10.23168      2.08494      4.25873        -0.004455      0.001845     -0.048480
O	      8.18027      4.09299      0.03719         0.006244      0.009730     -0.033567
O	     10.24001      6.08516      4.27489        -0.010478     -0.011817     -0.049535
O	      2.05231      4.09220      2.19223        -0.000166      0.004143      0.020232
O	      4.07283      6.12775      6.39158         0.014122     -0.000118      0.079138
O	      2.04853      8.18799      2.12332        -0.007233     -0.003145      0.031128
O	      4.08740     10.24635      6.40990         0.020920     -0.000366      0.051632
O	      6.13577      4.11307      2.20731         0.000933      0.017028      0.043306
O	      8.20154      6.12629      6.39365        -0.010662     -0.003134      0.081183
O	      6.14275      8.16660      2.14498        -0.003863      0.008061      0.018550
O	      8.18581     10.24631      6.40520        -0.023007     -0.006956      0.053950
O	     10.22276      4.08917      2.19794         0.006757      0.006698      0.017883
O	     12.27478      6.08625      6.40309         0.004379     -0.009004      0.047390
O	     10.22303      8.18859      2.13432         0.004175     -0.002813      0.040269
O	     12.27865     10.27690      6.39232         0.003392      0.007433      0.060232
