# total energy = -92.43699171 eV
 
CRYSTAL
PRIMVEC
-0.000001 4.075986 -0.000007 
4.156616 -0.000003 4.206592 
4.156756 -0.000003 -4.206742 
PRIMCOORD
16 1
Li	      4.27699      4.07439     -0.10473         0.034380     -0.000117     -0.052481
Li	      6.11208      2.03639     -0.10311        -0.035531      0.000431     -0.054228
Li	      6.18782      4.07442     -2.03633        -0.007919      0.000076      0.004325
Li	      4.20193      2.03635     -2.03647         0.007135      0.000534      0.006081
Mn	      8.24331      4.07439      0.05327        -0.102671      0.000031      0.074183
Mn	      2.14568      2.03640      0.05315         0.102350      0.000536      0.075389
Ni	      4.13010      2.03643      2.06365         0.002222     -0.000273      0.014310
Ni	      6.25865      4.07442      2.06364        -0.001744     -0.000153      0.014404
O	      4.03252      2.03640      0.01855         0.000656     -0.000991     -0.115401
O	      6.35643      4.07441      0.01878        -0.000675     -0.000649     -0.116257
O	      2.01670      2.03642     -1.93706         0.082535      0.000023      0.070032
O	      4.09466      4.07439     -2.26205         0.123819     -0.000469     -0.090209
O	      2.13789      2.03642      1.94441        -0.124605      0.000522     -0.089316
O	      4.21501      4.07441      2.26986        -0.079701      0.000615      0.069777
O	      0.12098      2.03642     -0.01367         0.072849      0.000105      0.094684
O	      1.95463      4.07441     -0.01395        -0.073099     -0.000220      0.094707
