# total energy = -670.18064961 eV
 
CRYSTAL
PRIMVEC
12.247799 -0.001315 0.001507 
0.001827 8.185634 0.015212 
4.082687 4.076000 8.492586 
PRIMCOORD
91 1
Li	      2.04218      4.09211      0.01231         0.003471      0.007493     -0.012246
Li	      4.07459      6.13311      4.28154         0.008915     -0.004984     -0.018856
Li	      2.04039      0.00367      0.00436        -0.000998     -0.006160     -0.010795
Li	      4.07023     10.22428      4.28044         0.003720      0.001134     -0.006101
Li	     10.17254      8.17154      8.47744         0.045710     -0.003780      0.003217
Li	      8.16831      6.13123      4.40054         0.000843     -0.004813     -0.040969
Li	     10.17353      4.07565      8.47156         0.041936      0.005751      0.000038
Li	      8.15706     10.22455      4.30698         0.006433      0.001552      0.017693
Li	     14.32139      8.16946      8.47997        -0.040835     -0.008883     -0.000950
Li	     12.25622      6.13143      4.12645        -0.014570     -0.003006     -0.000025
Li	     14.32134      4.07774      8.47364        -0.038767      0.001794     -0.003597
Li	     12.26886      2.03962      4.12219         0.004038     -0.009878      0.023806
Li	      4.07429      4.08380      2.12213         0.008924      0.012862      0.004574
Li	      6.12214      6.12662      6.37711         0.003969      0.005341     -0.003242
Li	      4.07592      8.18813      2.13056         0.009747     -0.012826      0.006015
Li	      6.11966     10.21991      6.38833        -0.002087     -0.000826     -0.001368
Li	      8.16126      4.05497      2.23796         0.006329      0.013702     -0.008899
Li	     10.16512      6.12609      6.42784         0.034747      0.001900      0.015794
Li	      8.16282      8.21452      2.24601         0.005135     -0.013698     -0.008088
Li	     10.15930     10.21987      6.42349         0.054462     -0.000170      0.019019
Li	     12.25782      4.08080      2.10618        -0.012663      0.007657     -0.003046
Li	     14.33542      6.12612      6.42204        -0.047810      0.001022      0.006642
Li	     12.25883      8.18940      2.11302        -0.017561     -0.007310     -0.000538
Li	     14.34472     10.21877      6.41199        -0.050561      0.000744      0.011366
Ti	      2.05136      2.04280      2.12133        -0.004430      0.007292     -0.037969
Ti	      4.08881      4.08042      6.37574        -0.010334      0.009111     -0.070726
Ti	      2.04565      6.13697      2.10790         0.010027     -0.003545     -0.032769
Ti	      4.08944      8.17497      6.38465         0.014740     -0.012576     -0.076749
Ti	      6.09893      2.04265      2.15385        -0.002144     -0.001044     -0.120191
Ti	      8.15981      4.07301      6.38030         0.000663     -0.018389     -0.084094
Ti	      6.07061      6.13560      2.16761        -0.012093     -0.007891     -0.059992
Ti	      8.16101      8.18043      6.38495        -0.015499      0.022196     -0.060137
Ti	     10.21792      2.04224      2.17235         0.001974     -0.004595     -0.086575
Ti	     12.24753      4.07889      6.35860         0.004530      0.006411     -0.003350
Ti	     10.24724      6.13465      2.15504        -0.016809      0.009807     -0.056191
Ti	     12.24716      8.17374      6.36617         0.006879     -0.002497     -0.009447
Ti	      0.01714      2.04888      0.00501         0.007897     -0.000202      0.052449
Ti	      2.05728      4.08555      4.25527        -0.018391      0.009108      0.087758
Ti	      4.09192     10.21656      8.50142        -0.002043      0.002771      0.041692
Ti	      2.05838      8.17894      4.26224        -0.022580     -0.001560      0.079201
Ti	      4.06533      2.04718      0.00994         0.003262      0.008129      0.088481
Ti	      6.11831      4.05720      4.24972         0.017677      0.016460      0.047125
Ti	      8.15401     10.21762      8.49314         0.002577     -0.010784      0.052021
Ti	      6.11983      8.20566      4.25730         0.017317     -0.015692      0.068915
Ti	     12.24946      6.12378      8.48524        -0.006417      0.000245      0.062950
Ti	     10.19716      4.04971      4.25241        -0.022898     -0.020146      0.072007
Ti	     12.24767     10.21688      8.46493        -0.000642     -0.004610      0.014572
Ti	     10.19789      8.21383      4.25866        -0.015399      0.024050      0.066691
O	      6.12297      6.12396      8.49266        -0.013969      0.001698     -0.011062
O	      4.08319      4.08656      4.25092         0.011909      0.007901     -0.004143
O	      6.12624     10.21641      8.49164        -0.008376      0.002229      0.009610
O	      4.08387      8.17657      4.25937         0.006210     -0.006354     -0.010394
O	      6.16831      2.04804      0.02085        -0.010301     -0.002219      0.046554
O	      8.16275      4.08045      4.24820         0.000782     -0.004194      0.022850
O	      6.17616      6.14066      0.03414        -0.009360     -0.000203      0.022490
O	      8.16449      8.18263      4.25583        -0.002956      0.003010      0.003546
O	     10.16438      2.04810      0.02939         0.014263     -0.003316      0.029146
O	     12.24744      4.08374      4.29349         0.014684      0.022836     -0.026003
O	     10.15137      6.14022      0.03037         0.027140     -0.003898      0.014696
O	     12.24942      8.17706      4.29949         0.000865     -0.017881     -0.011660
O	      4.09081      2.04306      2.13629         0.002345     -0.000440      0.006976
O	      6.12450      4.08550      6.36805        -0.001247     -0.001728      0.023438
O	      4.08533      6.13610      2.10704        -0.030894      0.006300      0.038042
O	      6.12516      8.16843      6.37613        -0.001366      0.004383      0.021784
O	      8.16419      2.04268      2.06261        -0.004339     -0.000110      0.025742
O	     10.24242      4.08464      6.37906        -0.013556      0.001170     -0.045478
O	     10.24395      8.16779      6.38533        -0.011004      0.003125     -0.040303
O	     12.23770      2.04226      2.13512        -0.000231      0.002577     -0.011584
O	     14.25111      4.08103      6.38160         0.018466     -0.002818     -0.068723
O	     12.24915      6.13615      2.11968         0.037960     -0.002674     -0.001983
O	     14.25169      8.17136      6.38813         0.014019      0.002969     -0.065359
O	     12.24869      8.18553      0.02279        -0.011812     -0.012699     -0.004099
O	     14.27931     10.22403      4.27719         0.023452      0.000301     -0.045065
O	     12.24748      4.09390      0.01632        -0.014628      0.015393     -0.003571
O	     14.28041      6.13061      4.25169         0.001882     -0.000028     -0.031550
O	      4.08079      0.00267      0.00223         0.022643      0.006718      0.022203
O	      6.12713     10.22399      4.28099        -0.015290      0.003433     -0.004961
O	      4.08258      4.09353      0.00858         0.017259     -0.007912      0.014459
O	      6.15067      6.13178      4.21198        -0.027437     -0.004293     -0.000410
O	     10.21901     10.22463      4.30915        -0.008883     -0.009700     -0.029919
O	     10.18773      6.13080      4.20859         0.034637      0.002685     -0.030336
O	      2.04190      4.09223      2.13356         0.006085      0.000697     -0.009133
O	      4.08160      6.12742      6.38042        -0.012162     -0.001039     -0.022670
O	      2.04281      8.18096      2.14065         0.010727     -0.004780     -0.011796
O	      4.08248     10.22035      6.38379        -0.021575      0.002900     -0.000969
O	      6.14429      4.11006      2.13666        -0.030782     -0.003014      0.039539
O	      8.17034      6.12730      6.38505         0.007545     -0.003511      0.021262
O	      6.14498      8.16074      2.14484        -0.034833      0.017759      0.030554
O	      8.16848     10.21992      6.37854         0.013150     -0.007317      0.004705
O	     10.18150      4.11602      2.14163         0.026679      0.017791      0.029852
O	     10.18344      8.15562      2.14789         0.021906     -0.022416      0.038607
