# total energy = -670.26690932 eV
 
CRYSTAL
PRIMVEC
12.261972 -0.002075 0.004698 
0.001327 8.187298 0.014216 
4.089365 4.075519 8.484664 
PRIMCOORD
91 1
Li	      2.02911      4.09405      0.02238         0.009366     -0.000098      0.000360
Li	      4.08912      6.13552      4.25799        -0.002037      0.000009     -0.011199
Li	      2.03883      8.18737      0.04154         0.016426      0.000023      0.002177
Li	      4.08996     10.22060      4.26618        -0.004008      0.004435     -0.012301
Li	     10.19683      8.17013      8.46725         0.028190     -0.001660     -0.024423
Li	      8.17712      6.12917      4.29353         0.002350      0.002451      0.009982
Li	      6.09456      8.18707      0.08289         0.021891     -0.000605     -0.000442
Li	      8.17750     10.22646      4.30163        -0.000749     -0.001868      0.011696
Li	     14.34204      8.16741      8.45557        -0.028437     -0.001723     -0.016647
Li	     12.25428      6.12710      4.14594        -0.005450     -0.010583      0.002992
Li	     10.29243      8.18749      0.04030        -0.026690     -0.001246      0.016082
Li	     12.25483      2.04030      4.13772        -0.006613      0.006305      0.006638
Li	      4.08486      4.08957      2.13844        -0.011734      0.002283     -0.001672
Li	      6.12614      6.14084      6.36726         0.009860     -0.008615      0.001579
Li	      4.08827      8.18277      2.14052         0.002068     -0.000743      0.012738
Li	      6.12635     10.20640      6.37455         0.007120      0.009074      0.001822
Li	      8.15542      4.08750      2.24466         0.008747      0.007095     -0.015657
Li	     10.17464      6.13497      6.36998         0.035493     -0.022365      0.000027
Li	      8.18401      8.18215      2.27310        -0.002908      0.000301      0.005491
Li	     10.17559     10.21128      6.37687         0.037658      0.021836      0.007228
Li	     12.27820      4.08764      2.09543        -0.008611     -0.000309     -0.018019
Li	     14.36634      6.15301      6.41661        -0.034563     -0.008731      0.018052
Li	     12.25543      8.18113      2.12643        -0.005998      0.000616      0.016328
Li	     14.36781     10.19008      6.42572        -0.040415      0.009682      0.014897
Ti	      2.05026      2.03842      2.12838        -0.007758      0.026538     -0.038202
Ti	      4.10222      4.07978      6.35891         0.014672      0.004832     -0.050361
Ti	      2.04951      6.14056      2.13610         0.002464     -0.023491     -0.045821
Ti	      4.10001      8.17339      6.37149        -0.033109      0.000915     -0.032985
Ti	      6.11448      2.04673      2.12671         0.006638      0.010514     -0.056169
Ti	      8.11003      4.07987      6.39295        -0.031665      0.001343      0.047167
Ti	      6.11615      6.13104      2.13383         0.007477     -0.010992     -0.077559
Ti	      8.17495      8.17334      6.39993         0.017035     -0.007149     -0.025309
Ti	     10.21891      2.06672      2.12905        -0.013623      0.050513     -0.030574
Ti	     12.37158      4.07885      6.38331         0.169286     -0.000365     -0.120908
Ti	     10.21874      6.10941      2.13374        -0.018756     -0.053673     -0.025367
Ti	     12.26390      8.17150      6.37601         0.012047      0.002305     -0.053575
Ti	      0.01000      2.04328      0.00572         0.021034      0.030571      0.039375
Ti	      2.06528      4.08437      4.25259         0.016480      0.002996     -0.007151
Ti	      0.00995      6.14484      0.01533         0.015590     -0.020114      0.026015
Ti	      2.05997      8.17949      4.26117        -0.023588     -0.000048      0.103356
Ti	      4.08055      2.08179      0.01391         0.007550      0.051396      0.018016
Ti	      6.11789      4.08413      4.24395        -0.036928     -0.005288     -0.023949
Ti	      4.08226      6.10524      0.02042         0.015981     -0.043973      0.028373
Ti	      6.12734      8.17865      4.25630        -0.011305     -0.005096      0.045412
Ti	     12.24701      6.09374      8.46524        -0.025930      0.027212      0.061700
Ti	     10.20588      4.08354      4.21133         0.048892      0.000214      0.086487
Ti	     12.24927     10.24441      8.47456        -0.030713     -0.029541      0.069061
Ti	     10.20902      8.17862      4.26596         0.032621     -0.007915      0.019865
O	      2.04217      2.04519      0.01028         0.011019     -0.007371      0.003577
O	      4.08471      4.08547      4.23715         0.030768     -0.007340      0.017773
O	      2.04404      6.14313      0.01786        -0.001362      0.002578      0.008588
O	      4.09012      8.17857      4.25587         0.014288     -0.001006     -0.018940
O	      6.15151      2.05635      0.00961         0.020439     -0.026532      0.054767
O	      8.19215      4.08343      4.26983        -0.024770     -0.001418      0.007331
O	      6.15078      6.13212      0.01703         0.023675      0.020160      0.039776
O	      8.17544      8.17710      4.26968        -0.026365      0.004974      0.004486
O	     10.18259      2.03167      0.00820        -0.032871     -0.014513      0.040954
O	     12.23017      4.08288      4.33877        -0.022225      0.000768     -0.003325
O	     14.27195     10.23103      8.49893        -0.020900      0.009024      0.031500
O	     12.26215      8.17720      4.31225         0.015995      0.002875     -0.015530
O	      4.08823      2.03378      2.13165         0.007728      0.005088      0.017079
O	      6.12103      4.08054      6.34718         0.006173     -0.002369      0.008692
O	      4.08860      6.14586      2.13785        -0.004909     -0.009106      0.013994
O	      6.13964      8.17288      6.37652         0.009912      0.000798     -0.018209
O	      8.17304      2.04503      2.06202        -0.012888     -0.003794      0.007608
O	      8.17244      6.13262      2.07056         0.002953     -0.004150      0.011556
O	     10.25464      8.17204      6.39038        -0.005797      0.002147     -0.049849
O	     12.25612      2.04881      2.13106         0.003753     -0.000924     -0.008530
O	     14.29785      4.07824      6.38397        -0.127417      0.002436     -0.016130
O	     12.25743      6.12674      2.13938         0.007880      0.002283     -0.010739
O	     14.27594      8.17138      6.38671         0.004157     -0.002652     -0.044727
O	      0.00827      8.18807      0.02320        -0.001849     -0.007328     -0.017261
O	     14.29506     10.22557      4.27643         0.005200      0.005672     -0.029223
O	      0.00176      4.09413      0.00870        -0.001560      0.004980     -0.018742
O	     14.29492      6.12719      4.26813        -0.000579     -0.002965     -0.022512
O	      8.21104      4.07595      8.43441        -0.006956     -0.000347     -0.036694
O	      6.13323      2.03888      4.24058         0.000656     -0.002115     -0.010531
O	      4.08140      4.09359      0.04545         0.007704      0.002610     -0.013093
O	      6.13419      6.12950      4.24604        -0.001591      0.008965     -0.002759
O	     10.21909     10.20411      4.25620         0.013093     -0.046776     -0.033925
O	     10.21979      6.15167      4.24768        -0.001283      0.043653     -0.039135
O	      2.03882      4.08954      2.14407         0.018362      0.001626      0.021079
O	      4.09386      6.12942      6.36963        -0.015702      0.001392      0.001477
O	      2.04492      8.18236      2.13938         0.005529      0.006442      0.004268
O	      4.09365     10.21723      6.37741        -0.002713      0.002729      0.005105
O	      6.14140      4.08946      2.12238        -0.011262     -0.000453      0.034808
O	      8.17900      6.10189      6.38388        -0.010689     -0.000456      0.019657
O	      6.14594      8.18257      2.13360        -0.009548     -0.003112      0.026625
O	      8.17962     10.24502      6.39178        -0.015214      0.000107      0.011523
O	     10.20197      4.08885      2.08514         0.006133      0.008280      0.010833
O	     10.20863      8.18154      2.15741        -0.012317     -0.002128      0.022175
