# total energy = -670.24291023 eV
 
CRYSTAL
PRIMVEC
12.261298 -0.001819 0.000310 
0.001484 8.187026 0.015805 
4.086189 4.077121 8.482976 
PRIMCOORD
91 1
Li	      2.03825      4.10701      0.02211         0.011693     -0.005329      0.007871
Li	      4.09672      6.13372      4.26015        -0.003833     -0.001553     -0.016922
Li	      2.03861      8.17729      0.02945         0.008144      0.003909     -0.000872
Li	      4.07295     10.22644      4.28047         0.007295      0.003812      0.019081
Li	      6.08491      4.10681      0.01697         0.043049     -0.028771      0.002403
Li	      8.15997      6.13308      4.26633        -0.002623     -0.002382     -0.007463
Li	      6.08495      8.17756      0.02609         0.042800      0.022830     -0.005215
Li	      8.18192     10.22728      4.28190        -0.002565      0.000049      0.003622
Li	     14.36449      8.20029      8.45805        -0.045946     -0.008067     -0.012134
Li	     12.26794      6.13346      4.12735         0.001104     -0.005147      0.010739
Li	     14.36578     12.23412      8.46483        -0.044531      0.009561     -0.016924
Li	     12.26174      2.03824      4.14410        -0.014454     -0.001695      0.032551
Li	      4.08962      4.08738      2.11549        -0.002476     -0.000800      0.001148
Li	      6.11998      6.12821      6.34298         0.006807     -0.002543     -0.011136
Li	      4.09185      8.18795      2.12398         0.000444      0.000606     -0.003473
Li	      6.11774     10.22337      6.38149        -0.001571      0.000400      0.005512
Li	      8.15779      4.08712      2.23938         0.001634     -0.000122     -0.017934
Li	     10.17835      6.12901      6.30398         0.035047     -0.000277      0.004717
Li	      8.15684      8.18480      2.24772        -0.005070      0.012695     -0.021276
Li	     10.19233     10.22206      6.41168         0.040901     -0.000359      0.012542
Li	     12.26673      4.09539      2.11092        -0.002947      0.003284      0.008824
Li	     14.38170      6.12836      6.36628        -0.025050      0.000332     -0.014307
Li	     12.26743      8.17625      2.11708        -0.001048     -0.001640     -0.000438
Li	     14.33989     10.21927      6.41407        -0.039234      0.001389      0.024544
Ti	      2.03641      2.04397      2.14809        -0.037653      0.007507      0.014350
Ti	      4.09726      4.08066      6.37444        -0.004223     -0.003829     -0.038463
Ti	      2.05663      6.13860      2.13892         0.004491     -0.007699     -0.057315
Ti	      4.09979      8.17639      6.38441        -0.010825      0.009842     -0.051528
Ti	      6.10624      2.04451      2.16423         0.037843     -0.001402     -0.070158
Ti	      8.16596      4.04536      6.36591         0.025090     -0.023685     -0.027583
Ti	      6.10839      6.13677      2.13061         0.011007     -0.004625     -0.071017
Ti	      8.16476      8.21240      6.37439         0.026305      0.022210     -0.035360
Ti	     10.23925      2.04070      2.13264         0.007663      0.005113     -0.036823
Ti	     12.24475      4.10962      6.39824        -0.013270     -0.029251     -0.054756
Ti	     10.22580      6.13674      2.14304        -0.021831     -0.000172     -0.100943
Ti	     12.24403      8.14421      6.41028        -0.012508      0.035399     -0.062518
Ti	      0.01271      2.04980      0.02786        -0.007234     -0.008503      0.031568
Ti	      2.05764      4.08393      4.25951        -0.026444     -0.011054      0.050438
Ti	      0.01262      6.14077      0.01911        -0.016976      0.012521      0.051461
Ti	      2.05983      8.18312      4.26289        -0.030970      0.010191      0.077610
Ti	      8.10180      6.12611      8.45933        -0.023419     -0.005346     -0.017392
Ti	      6.11890      4.06697      4.25251        -0.001737     -0.030569      0.005904
Ti	      8.17419     10.21920      8.48079         0.011749      0.000385      0.076842
Ti	      6.11987      8.20010      4.26189        -0.002178      0.031316      0.006052
Ti	     12.37173      6.12385      8.48188         0.155080      0.000020      0.098757
Ti	     10.20546      4.08471      4.24242         0.029458     -0.031326      0.065631
Ti	      8.17388      6.14091      0.01710        -0.009838     -0.004554      0.038469
Ti	     10.20477      8.18256      4.24395         0.033303      0.020696      0.088473
O	      2.03325      2.04837      0.03972         0.030272      0.001034      0.008156
O	      4.08120      4.07924      4.25338         0.008982     -0.001880      0.015725
O	      2.04901      6.14168      0.01784        -0.004676     -0.000437      0.005287
O	      4.08034      8.18809      4.26187         0.006299     -0.004457      0.009113
O	      8.17217      4.08665      4.24336        -0.007725     -0.005008      0.015057
O	     10.25504     10.21890      8.48679        -0.005113      0.001507      0.039155
O	      8.17440      8.17985      4.25053        -0.008639      0.007061      0.014508
O	     14.29370      6.12465      8.48225        -0.100220      0.003642      0.015956
O	     12.26058      4.09144      4.32069         0.004782      0.002795     -0.032168
O	     10.18604      6.13951      0.01996         0.012945     -0.000656      0.033918
O	     12.26024      8.17320      4.33187         0.008829      0.002422     -0.046310
O	      4.10322      2.04455      2.09727        -0.000928     -0.004216     -0.007705
O	      6.13113      4.09019      6.37383         0.005976      0.002607     -0.000439
O	      4.08919      6.13752      2.12953        -0.006748      0.007106      0.004976
O	      6.13190      8.16680      6.38429         0.000218      0.001980     -0.001434
O	      8.13468      2.04286      2.03582        -0.024455      0.002273      0.010963
O	     10.23601      4.06992      6.35996        -0.005423      0.022239     -0.040996
O	      8.17262      6.13757      2.07896         0.000532     -0.005342      0.030714
O	     10.23666      8.18720      6.36455        -0.000078     -0.023358     -0.035498
O	     12.26298      2.04209      2.15499         0.006680     -0.006182     -0.028338
O	     14.26566      4.08410      6.37599        -0.007939      0.020756     -0.040682
O	     12.26308      6.13666      2.14183         0.006545      0.000240     -0.007038
O	     14.26538      8.16960      6.38060        -0.004397     -0.016309     -0.030544
O	     12.26527      8.18646      0.03257         0.011417     -0.007397     -0.019261
O	     14.29230     10.22671      4.28520         0.017385     -0.012590     -0.032331
O	     12.26381      4.09404      0.02665         0.014150      0.003514     -0.017294
O	     14.29875      6.13037      4.26298         0.017859      0.017696     -0.030417
O	      8.17660      4.10292      8.47453        -0.024675     -0.007796     -0.026355
O	      6.12868     10.22621      4.28818        -0.003966     -0.001169     -0.002676
O	      8.17818      8.14876      8.48223        -0.024202      0.004875     -0.025726
O	      6.13343      6.13417      4.23659        -0.013673     -0.003573      0.001331
O	     10.22156      2.04078      4.24444        -0.000872     -0.009612     -0.040536
O	     10.22313      6.13166      4.25939        -0.008217      0.006360     -0.028464
O	      2.04312      4.09271      2.14507         0.008425      0.011598      0.020171
O	      4.09443      6.12735      6.37827         0.002871      0.009477      0.015200
O	      2.04324      8.18274      2.15211         0.011229     -0.009463      0.007806
O	      4.08597     10.22354      6.38542         0.004502     -0.014173      0.015347
O	      6.13219      4.10872      2.13281        -0.019953      0.025079      0.052745
O	      8.21277      6.12900      6.42383        -0.035179      0.001014      0.033541
O	      6.13241      8.16567      2.14153        -0.018239     -0.023950      0.057177
O	      8.16843     10.22260      6.34755         0.004892      0.000568      0.033025
O	     10.20722      4.08581      2.12431         0.003855      0.012331      0.040033
O	     10.20822      8.18558      2.12918         0.006213     -0.003973      0.027144
