# total energy = -680.92928395 eV
 
CRYSTAL
PRIMVEC
12.270213 -0.001846 -0.002570 
0.001469 8.189954 0.016053 
4.087152 4.078822 8.501221 
PRIMCOORD
92 1
Li	      2.02988      4.09563      0.04087        -0.008973      0.001779      0.027447
Li	      4.04132      6.15366      4.27018         0.031066     -0.029531      0.008387
Li	      2.06265      8.19273      0.04553         0.002800      0.000557      0.002914
Li	      4.04290     10.21438      4.28023         0.031214      0.026629      0.000622
Li	     10.24569      8.17593      8.40474         0.017116     -0.003429      0.011214
Li	      8.23689      6.17094      4.22494        -0.037941     -0.014282     -0.001903
Li	      6.13468      8.19090      0.01912        -0.012510     -0.000566      0.020266
Li	      8.23851     10.19459      4.23402        -0.040874      0.017075     -0.004303
Li	     10.22229      4.09609      0.03119        -0.009657      0.000299     -0.011800
Li	     12.26510      6.13686      4.26408         0.002710     -0.015022     -0.011738
Li	     10.20391      8.19058      0.04384         0.002703     -0.000920      0.019047
Li	     12.26439     10.22843      4.27121         0.005648      0.014607     -0.012318
Li	      4.07080      4.09117      2.06680         0.015313      0.000493      0.031774
Li	      6.12201      6.12973      6.49566        -0.003699     -0.001164     -0.023121
Li	      4.10426      8.18906      2.14818         0.017357     -0.003683      0.004476
Li	      6.12199     10.22555      6.50317         0.000582      0.017696     -0.022775
Li	      8.23422      4.09214      2.11721        -0.026063      0.000345     -0.002391
Li	     10.22878      6.13113      6.37824        -0.001511     -0.000050      0.005656
Li	      8.16895      8.18589      2.15059        -0.013883     -0.001238      0.007362
Li	     10.22935     10.22658      6.38623        -0.003165      0.001207      0.005574
Li	     12.25968      4.09028      2.09698         0.003427      0.000154     -0.015397
Li	     14.30932      6.11648      6.37208        -0.001287      0.001070     -0.004908
Li	     12.25656      8.18631      2.13702        -0.002482      0.000269     -0.002320
Li	     14.31108     10.23916      6.38116        -0.002611      0.001104     -0.004889
Ti	      2.05168      2.00721      2.13292         0.005460     -0.000862     -0.031920
Ti	      4.06659      4.08446      6.42623         0.021016      0.006335     -0.073691
Ti	      2.05204      6.17693      2.13789         0.017688      0.000612     -0.015309
Ti	      4.03602      8.17872      6.42362        -0.025551     -0.005742     -0.035197
Ti	      6.11285      2.04586      2.12019         0.006710     -0.067222      0.011112
Ti	      8.20667      4.08377      6.39008         0.000276      0.001636     -0.091579
Ti	      6.11131      6.13761      2.13116         0.008887      0.074272     -0.000560
Ti	      8.20805      8.17847      6.43842         0.006781     -0.006586     -0.065343
Ti	     10.21937      2.04458      2.13991         0.013982     -0.015217     -0.052475
Ti	     12.25179      4.08365      6.40525        -0.020916      0.001244     -0.041644
Ti	     10.22211      6.13814      2.14911         0.002132      0.016089     -0.044135
Ti	     12.28133      8.17843      6.36252         0.001543     -0.001202     -0.007478
Ti	     16.34776      6.09797      8.50078        -0.007405     -0.011914      0.044028
Ti	     14.23762      4.08765      4.21975        -0.002031      0.000575     -0.004905
Ti	     16.35029     10.25115      8.50917        -0.015802      0.005772      0.049548
Ti	     14.28825      8.18263      4.24797        -0.009564     -0.000424      0.031542
Ti	      8.17747      6.13586      8.50269         0.007589      0.001292      0.048968
Ti	      6.24952      4.08736      4.23010         0.159707     -0.000493      0.106013
Ti	      8.17668     10.21627      8.51233         0.013800     -0.009333      0.054806
Ti	      6.13468      8.18307      4.25199        -0.008472     -0.004231      0.051243
Ti	      8.17877      2.04536      0.01568         0.008360      0.000285      0.045885
Ti	     10.24007      4.08843      4.27473        -0.025025      0.001072      0.041586
Ti	      8.17915      6.14652      0.02198         0.000529     -0.001853      0.054233
Ti	     10.26162      8.18282      4.26782         0.008211     -0.001830      0.005710
O	      2.03881      2.05096      0.00532         0.009403      0.001765      0.029595
O	      6.12688     10.22203      8.51216         0.002393     -0.001752      0.036873
O	      4.13693      8.18465      4.31024         0.013503     -0.000293      0.032354
O	      6.13506      2.06293      0.01910        -0.004995      0.004644      0.009955
O	      8.16358      4.08785      4.25442        -0.079052      0.003147      0.019011
O	      6.13662      6.12963      0.02915         0.001690     -0.002156     -0.001612
O	      8.13411      8.18308      4.32022        -0.008210      0.003836      0.031520
O	     10.22403      2.03851      0.01960        -0.007307      0.006858      0.017647
O	     12.25934      4.08706      4.28922         0.013672      0.002486      0.010808
O	     10.22404      6.15285      0.02910        -0.006674     -0.011112      0.011879
O	     12.27362      8.18294      4.23509        -0.011355     -0.001803      0.039756
O	      4.08666      2.05053      2.13022        -0.022938     -0.020987     -0.061227
O	      6.08917      4.08404      6.27991        -0.023688      0.003500      0.016653
O	      4.08823      6.13473      2.14036        -0.020545      0.018873     -0.067162
O	      6.13433      8.17893      6.29248        -0.008249     -0.000621     -0.032431
O	      8.16648      2.06516      2.13203         0.025752     -0.013629     -0.051701
O	     10.22316      4.08331      6.40966         0.019733      0.000371     -0.038625
O	      8.16772      6.11689      2.13767         0.027014      0.015772     -0.043515
O	     10.21069      8.17864      6.39021        -0.010449      0.000705     -0.029511
O	     12.27045      2.05049      2.12231        -0.002200     -0.003784     -0.008160
O	     14.33041      4.08298      6.34456        -0.010855      0.001517      0.013036
O	     12.27001      6.13122      2.13109         0.007254      0.005743     -0.013098
O	     14.32551      8.17820      6.38830         0.015413     -0.003977     -0.028437
O	     12.27199      8.19022      0.04923        -0.012075     -0.005223     -0.036869
O	     14.30931      2.06258      4.23980        -0.016708     -0.001638     -0.032254
O	      4.09688      8.17643      8.49456        -0.023757     -0.003726     -0.039699
O	     14.30988      6.11239      4.24732        -0.012386      0.002532     -0.036173
O	      8.17436      4.08071      8.49108         0.013273     -0.000560     -0.046954
O	      4.08573      4.09761      0.02891         0.006584      0.000630     -0.053577
O	      8.17292      8.19090      0.03616         0.002914      0.001575     -0.026754
O	     10.23230     10.22994      4.28008         0.005408      0.004699     -0.024331
O	     12.26412      8.17470      8.50201         0.018773      0.004480     -0.048450
O	     10.23116      6.13617      4.27300         0.007690     -0.012835     -0.026135
O	      2.07879      4.09278      2.19029        -0.044017     -0.002305      0.028958
O	      4.08415      6.15178      6.39653        -0.009815      0.008956      0.047878
O	      2.06147      8.18670      2.12177        -0.020098     -0.001001      0.043759
O	      4.08494     10.20676      6.40525        -0.006988     -0.006808      0.049928
O	      8.16860      6.12063      6.38317         0.008227     -0.017543      0.057842
O	      6.13470      8.18701      2.21785        -0.001871      0.003935     -0.001487
O	      8.17011     10.23680      6.39221         0.004340      0.019820      0.052890
O	     10.23389      4.09112      2.14053         0.012821     -0.003300      0.018437
O	     12.27143      6.13679      6.39154        -0.001015     -0.000023      0.020245
O	     10.20651      8.18643      2.16037         0.011950      0.002473      0.030067
O	     12.27187     10.22015      6.39934         0.004253      0.001084      0.021756
