# total energy = -680.93650822 eV
 
CRYSTAL
PRIMVEC
12.271138 -0.002081 0.007387 
0.001330 8.189616 0.015242 
4.094291 4.077731 8.505383 
PRIMCOORD
92 1
Li	      6.12712      8.17437      8.40373        -0.004295      0.010086      0.019461
Li	      4.14716      6.13394      4.29133        -0.032461     -0.000071     -0.001619
Li	      6.12823      4.07762      8.39978        -0.006137     -0.012000      0.014323
Li	      4.08165      2.04149      4.23663        -0.014757     -0.004285     -0.005918
Li	      6.14183      4.09449      0.01371        -0.001606     -0.003988     -0.008186
Li	      8.17422      6.13508      4.29580         0.019417     -0.002636     -0.001383
Li	      6.14123      0.00114      0.00756        -0.004439      0.002355     -0.010665
Li	      8.16636     10.22969      4.29749         0.012680     -0.003086      0.008213
Li	     10.22458      4.10678      0.04180         0.002592      0.003094      0.012331
Li	     12.25462      6.13255      4.34249         0.006288      0.001822     -0.011604
Li	     10.22354      8.17517      0.05024         0.006029      0.002509      0.012694
Li	     12.28913      2.04034      4.25358         0.007362     -0.002360     -0.009604
Li	      4.15133      4.05805      2.17939        -0.039169      0.015363      0.005832
Li	      6.13012      6.13100      6.35819        -0.014501     -0.000374     -0.009621
Li	      4.15069      8.21829      2.18771        -0.039368     -0.014860      0.003692
Li	      6.15368     10.22441      6.35327        -0.006877      0.001860     -0.020255
Li	      8.17584      4.08823      2.14348         0.003322      0.008417      0.009227
Li	     10.24563      6.12956      6.38514         0.014332      0.002446     -0.002658
Li	      8.17666      8.18700      2.14944         0.005309     -0.008003      0.012824
Li	     10.22992     10.22381      6.40229        -0.015743      0.003457     -0.000539
Li	     12.22580      4.07667      2.13248         0.036434      0.025305     -0.001082
Li	     14.31258      6.12883      6.51044        -0.007215      0.001356      0.003029
Li	     12.22708      8.19844      2.14555         0.034830     -0.026357     -0.007372
Li	     14.30123     10.22358      6.40273         0.014704      0.001124     -0.030836
Ti	      2.04770      2.04541      2.14447        -0.015466     -0.005902     -0.071906
Ti	      4.08267      4.05624      6.38376        -0.001804     -0.020123     -0.048405
Ti	      2.15969      6.13696      2.17226         0.165492      0.004693     -0.117627
Ti	      4.08270      8.20436      6.38820        -0.000187      0.023977     -0.042716
Ti	      6.17222      2.04322      2.13429         0.030789     -0.007230     -0.019941
Ti	      8.18876      4.09096      6.39848         0.008768      0.001205     -0.052966
Ti	      6.15372      6.13838      2.12834        -0.028854      0.000061     -0.066421
Ti	      8.19041      8.17034      6.40524         0.007319     -0.013156     -0.046765
Ti	     10.19791      2.04238      2.16195        -0.003123     -0.001157     -0.022564
Ti	     12.27088      4.07452      6.38825        -0.000134      0.004415     -0.056998
Ti	     10.15561      6.13713      2.17860         0.002070     -0.001643      0.022471
Ti	     12.27211      8.18375      6.39359        -0.008043     -0.006106     -0.056744
Ti	     16.32390      6.12158      8.49220        -0.007519      0.003376      0.045420
Ti	     14.30117      4.08656      4.28110        -0.005843     -0.080735     -0.008776
Ti	      4.07997     10.22249      8.46964         0.026846      0.001527      0.090000
Ti	     14.30091      8.18063      4.28834        -0.006389      0.082554     -0.009526
Ti	      8.22309      6.12597      8.47580         0.010797     -0.002117      0.051370
Ti	      6.13356      4.08973      4.26227         0.012095     -0.016721      0.037395
Ti	      4.11927      6.14327      0.01604         0.005109      0.000010      0.064561
Ti	      6.13433      8.17964      4.26657         0.014525      0.025996      0.045911
Ti	      8.17742      2.04693      0.04425        -0.015515      0.003076      0.027170
Ti	     10.23458      4.04745      4.26689         0.005569     -0.007969      0.042743
Ti	     12.25900     10.21935      8.51278        -0.034211     -0.004158      0.028253
Ti	     10.23601      8.21925      4.27438         0.003297      0.019425      0.050837
O	      2.04807      2.04765      0.10260         0.007919      0.002807      0.043725
O	      4.08156      4.11315      4.26303         0.016890     -0.017277      0.035658
O	      2.00260      6.14240      0.12083        -0.027924      0.003784     -0.002637
O	      4.08297      8.15672      4.26887         0.013671      0.011687      0.041618
O	      6.12280      2.04812      0.00885        -0.015977      0.000867      0.003137
O	      8.18296      4.08470      4.27775        -0.009510     -0.006233      0.010039
O	     10.22974     10.22013      8.50434         0.028159     -0.002460      0.017613
O	      8.18290      8.18453      4.28610        -0.009289      0.000771     -0.001268
O	     10.23512      2.04600      0.02911         0.010254     -0.004537      0.006245
O	     12.27221      4.09731      4.26793        -0.002015     -0.020025      0.061472
O	     10.24752      6.14173      0.05770        -0.019372     -0.005883      0.000931
O	     12.27284      8.17043      4.27329         0.002546      0.015830      0.066993
O	      4.04666      2.04299      2.08699        -0.005936      0.007037     -0.034026
O	      6.13749      4.07609      6.38524        -0.002144      0.019219     -0.016270
O	      4.07611      6.13666      2.14902        -0.098508      0.005064     -0.010917
O	      6.13858      8.18475      6.39005        -0.006171     -0.019963     -0.016967
O	      8.18514      2.04226      2.16894         0.000169      0.003071     -0.027992
O	     10.22525      4.09045      6.38534         0.010116     -0.000591      0.000348
O	      8.17260      6.13717      2.11989         0.010805      0.008400      0.018470
O	     10.22602      8.16872      6.39236         0.012204      0.004238      0.004605
O	     12.31998      2.04283      2.10028         0.011501      0.001337     -0.036400
O	     14.31676      4.08428      6.38420        -0.012912      0.006303      0.001738
O	     14.31793      8.17390      6.38957        -0.006082     -0.009986      0.008766
O	      4.09444      4.09884      8.50004        -0.010116      0.024459     -0.055324
O	      2.04587      2.04073      4.18044        -0.011857     -0.000919      0.002143
O	      4.09424      8.15206      8.50143        -0.001026     -0.021568     -0.045409
O	      4.08502      8.18098      0.02457        -0.000467     -0.017187     -0.038676
O	      6.11923      2.04051      4.24722         0.024540      0.000103     -0.022241
O	      4.08429      4.10490      0.01539        -0.001683      0.014629     -0.038994
O	      6.14831      6.13473      4.26604         0.005515     -0.005462     -0.018009
O	      8.17706      0.00389      0.00791         0.005188     -0.003705     -0.008806
O	     10.24208     10.22813      4.30191        -0.006031      0.001203     -0.025936
O	      8.17856      4.08924      0.01456         0.003320      0.014072     -0.009739
O	     10.25960      6.13404      4.21300        -0.028349     -0.007760     -0.047675
O	      4.09291      6.13143      6.41187        -0.012660     -0.004494      0.042677
O	      4.08461     10.22468      6.35758        -0.001676      0.001466      0.015354
O	      6.14379      4.08989      2.13708        -0.003899      0.011509      0.020474
O	      8.17876      6.13057      6.38286         0.005807      0.000407      0.027627
O	      6.14418      8.18594      2.14218        -0.000883     -0.013647      0.024201
O	      8.17660     10.22479      6.42004         0.018785      0.005907      0.030558
O	     10.22269      4.11406      2.15518        -0.015847     -0.000501      0.020461
O	     12.28347      6.12987      6.40887        -0.003769     -0.013074      0.041036
O	     10.22251      8.16021      2.16283        -0.012790      0.005755      0.016465
O	     12.28296     10.22422      6.39496        -0.002820      0.000879      0.029867
