# total energy = -680.89327923 eV
 
CRYSTAL
PRIMVEC
12.258531 -0.001883 0.000292 
0.001447 8.192235 0.016204 
4.085234 4.080080 8.519791 
PRIMCOORD
92 1
Li	      6.13710      8.17682      8.49424        -0.009074     -0.002177     -0.019523
Li	      4.11379      6.13408      4.24893        -0.033083      0.007867     -0.005352
Li	      6.16604      4.08139      8.39146        -0.010148     -0.002011      0.015228
Li	      4.11410      2.04329      4.24073        -0.035074     -0.010681     -0.002125
Li	      6.11969      4.09575      0.03802         0.009225     -0.000310     -0.016986
Li	      8.17316      6.14283      4.25932         0.000973      0.007546     -0.001144
Li	      6.10298      8.19218      0.04940         0.005343      0.000729     -0.014809
Li	      8.17354     10.22628      4.26746         0.000424     -0.009185     -0.002561
Li	     10.22073      4.09436      0.16212        -0.005432      0.001324     -0.067479
Li	     12.23093      6.13371      4.24669         0.036490      0.006705     -0.000088
Li	     10.21059      8.19128      0.09391         0.006395     -0.001562      0.013518
Li	     12.23052      2.04109      4.23918         0.036680     -0.003442     -0.000629
Li	      4.08996      4.09240      2.15964        -0.011619      0.002314     -0.001585
Li	      6.13926      6.13201      6.37854        -0.002925      0.007070     -0.005026
Li	      4.11706      8.18723      2.17848        -0.039229      0.001983      0.010107
Li	      6.14011     10.22977      6.38527        -0.006147     -0.009097     -0.001384
Li	      8.16804      4.09125      2.13026         0.005050      0.001006      0.004224
Li	     10.20586      6.13039      6.39394         0.005744      0.003750      0.000348
Li	      8.17045      8.18707      2.14939         0.001930     -0.000208      0.009094
Li	     10.20714     10.22947      6.40222         0.006255     -0.000692     -0.001269
Li	     12.25884      4.09103      2.17059         0.008580     -0.001303      0.007766
Li	     14.29985      6.09653      6.51131         0.005726      0.041612      0.000184
Li	     12.23456      8.18678      2.19985         0.033519      0.000985      0.014885
Li	     14.30063     10.26062      6.51792         0.003385     -0.042666      0.005637
Ti	      2.04319      2.08558      2.07623        -0.009110      0.043337     -0.019276
Ti	      4.11460      4.08423      6.45759         0.016459      0.003542     -0.050348
Ti	      2.04276      6.10076      2.08020         0.005314     -0.058049     -0.012403
Ti	      4.13572      8.18060      6.43745        -0.065817     -0.001069     -0.090472
Ti	      6.12535      2.04320      2.13651         0.001764      0.027325     -0.070449
Ti	      8.18171      4.08394      6.35939         0.021027      0.002511     -0.024929
Ti	      6.12586      6.14042      2.14400         0.002233     -0.029630     -0.071121
Ti	      8.17753      8.18162      6.37475        -0.001400     -0.006014     -0.081357
Ti	     10.22071      2.03994      2.14344         0.009163     -0.023768     -0.055968
Ti	     12.21696      4.08286      6.45106        -0.045533      0.001529     -0.065090
Ti	     10.22102      6.14093      2.15090         0.001401      0.027189     -0.057931
Ti	     12.20361      8.17952      6.44062         0.037407      0.000770     -0.075559
Ti	     12.25626      2.00620      0.00975        -0.002394     -0.023938      0.044860
Ti	     14.30215      4.08709      4.27214         0.004335     -0.000009      0.056466
Ti	     12.25670      6.18395      0.01795        -0.009935      0.028476      0.037791
Ti	      2.04460      8.18467      4.23116        -0.001564      0.000951      0.055413
Ti	      4.09507      2.04976      0.00766        -0.022687      0.003072      0.040269
Ti	      6.16131      4.08925      4.26513         0.019895     -0.001564      0.011723
Ti	      4.09628      6.14296      0.01525        -0.024621      0.005747      0.044186
Ti	      6.14086      8.18428      4.25963         0.005309      0.000764      0.077977
Ti	      8.16840      2.01625      0.00502         0.014787      0.012716      0.034850
Ti	     10.18387      4.08838      4.26989        -0.007065      0.001518      0.056162
Ti	     12.25381     10.25452      8.53206         0.021075     -0.017438      0.037436
Ti	     10.20624      8.18454      4.26862        -0.010390     -0.003359      0.058997
O	      6.13005      6.11362      8.51927         0.006796      0.015457      0.010236
O	      4.03663      4.08895      4.32634        -0.053851      0.003331      0.032997
O	      6.13081     10.24099      8.52583        -0.002187     -0.014975      0.014474
O	      4.03482      8.18452      4.30328        -0.025384      0.000777      0.011777
O	      6.13387      2.05062      0.01118        -0.009209     -0.003460      0.021699
O	      8.17249      4.08939      4.23666        -0.012894     -0.003241      0.035271
O	      6.13499      6.13999      0.01843        -0.015879      0.005458      0.022465
O	      8.17263      8.18407      4.25979        -0.004321      0.000657     -0.001266
O	     10.21123      2.03952      0.01024         0.012773     -0.023454      0.044236
O	     12.30620      4.08841      4.32606         0.060852     -0.001247      0.035483
O	     10.21142      6.15020      0.01725         0.019594      0.026585      0.051464
O	     12.31334      8.18338      4.30584         0.033182      0.002148      0.017600
O	      4.07344      2.02969      2.12558         0.011336      0.016101     -0.053170
O	      6.11411      4.08453      6.38942        -0.036163      0.001087     -0.022072
O	      4.07400      6.15430      2.13322         0.011124     -0.018154     -0.057274
O	      6.13241      8.18183      6.36976         0.013251     -0.006727      0.035645
O	      8.17314      2.05256      2.12677        -0.001102     -0.006490     -0.017705
O	     10.22975      4.08414      6.40199         0.028840     -0.005775     -0.017900
O	      8.17341      6.12997      2.13423         0.005507      0.005496     -0.014249
O	     10.21313      8.18069      6.37572        -0.002844      0.002069      0.042872
O	     12.27090      2.03806      2.13555        -0.019322      0.010500     -0.063423
O	     14.29945      4.08334      6.31055         0.006224     -0.003219     -0.050568
O	     12.27060      6.14324      2.14349        -0.012248     -0.010134     -0.069206
O	     12.27058      8.19114      0.06682        -0.025913     -0.002106     -0.064208
O	      4.06675      8.17716      8.47400         0.039692     -0.005492     -0.014125
O	      8.16363      4.08134      8.50882         0.023812     -0.002436     -0.024329
O	      6.12778      2.04071      4.26076         0.000896     -0.030689     -0.032350
O	      8.16337      8.17643      8.51390         0.010678     -0.001699     -0.007319
O	      6.12799      6.13649      4.26913         0.003286      0.034293     -0.031447
O	      8.17589      8.19101      0.04884         0.008106      0.008215     -0.047748
O	     10.21860     10.23023      4.27967        -0.007628     -0.001917     -0.027433
O	     12.28648      8.17533      8.48202        -0.042982     -0.006759      0.007077
O	     10.21764      6.13907      4.27180        -0.007966     -0.003946     -0.029594
O	      2.04180      4.09303      2.19603         0.001251      0.007964      0.078635
O	      4.06057      6.16233      6.41581         0.051423      0.016117      0.056460
O	      4.06131     10.19860      6.42393         0.049880     -0.009465      0.054071
O	      6.11370      4.09050      2.14804         0.002226      0.015559      0.018040
O	      8.17717      6.13162      6.39316        -0.001489      0.000215      0.010337
O	      6.13100      8.18824      2.14279        -0.003128     -0.004536      0.034000
O	      8.17832     10.22979      6.39974        -0.002838      0.004363      0.011227
O	     10.23353      4.09026      2.15173        -0.003703      0.000628      0.059053
O	     12.27611      6.15609      6.41855        -0.045745      0.003227      0.041146
O	     10.21535      8.18675      2.14967         0.008494     -0.000407      0.036661
O	     12.27597     10.20415      6.42559        -0.045067     -0.008083      0.040198
