# total energy = -640.44228710 eV
 
CRYSTAL
PRIMVEC
11.625609 -0.000849 0.002242 
0.002002 7.771129 0.015286 
3.875985 3.870586 8.056168 
PRIMCOORD
92 1
Li	      5.53056      7.36844      7.55522         0.764614      1.196392      1.122233
Li	      3.72361      5.53137      3.81088        -1.289040      0.032661      0.328831
Li	      5.52513      3.67891      7.54780         1.012233     -0.191722      1.571291
Li	      3.72119      1.84089      3.80286        -0.916066     -1.079980      0.648317
Li	      5.52094      3.69123      0.02153        -0.189523     -0.041331     -0.516021
Li	      7.36311      5.52841      3.84741         0.016221     -0.008279      0.052725
Li	      5.52769      7.38502      0.02886        -1.058209      0.822966     -0.208106
Li	      7.36590      9.22500      3.85414         0.001833      0.938388      0.262235
Li	      9.20024      3.69086      0.03807         0.083193     -0.113865     -0.841354
Li	     11.00783      5.53156      3.80960         0.864637     -0.034799     -0.268047
Li	      9.19991      7.38475      0.04536        -0.150741      1.144680     -0.885734
Li	     11.00634      1.83884      3.80099         0.685022     -1.218907     -0.006482
Li	      3.72142      3.68841      1.95766        -0.890570     -0.037200      0.161164
Li	      5.52759      5.52570      5.72722        -0.065025      0.017522      0.643808
Li	      3.72311      7.38066      1.96721        -0.901415      1.086872     -0.080704
Li	      5.53012      9.22108      5.73161        -0.100060      0.996098      0.553929
Li	      7.36353      3.68731      1.91800        -0.047574     -0.079325      0.107316
Li	      9.20476      5.52588      5.74342         0.133016     -0.042589      0.629164
Li	      7.36569      7.38068      1.92312        -0.139496      0.950636     -0.269617
Li	      9.20465      9.21943      5.74881         0.136451      0.957924      0.237394
Li	     11.00816      3.68668      1.95733         1.398686     -0.035505     -0.332422
Li	     12.88216      5.52631      5.86621         1.055553     -0.004585      0.328676
Li	     11.00683      7.37907      1.96509         1.282139      0.887221     -0.640551
Li	     12.88240      9.21847      5.87222         0.970412      0.885096     -0.105703
Ti	      1.84206      1.84287      1.92136        -4.363874     -0.876447      1.474765
Ti	      3.68926      3.68255      5.74829        -3.469157     -2.741178      1.869211
Ti	      1.84406      5.53290      1.93102        -4.624407     -0.008797      0.615876
Ti	      3.69037      7.37129      5.76084        -3.664740      1.435389      1.182040
Ti	      5.53102      1.84408      1.92443        -0.479628     -2.608445      0.286781
Ti	      7.37039      3.68262      5.75331         0.789390     -3.031801      2.401844
Ti	      5.53205      5.53214      1.92969        -0.439932     -0.483458     -0.401081
Ti	      7.37299      7.37266      5.75429         0.761754      1.056348      2.445863
Ti	      9.19694      1.84281      1.92132         1.132577     -2.518945      0.756653
Ti	     11.03081      3.68171      5.74334         0.385062     -2.429187      1.481594
Ti	      9.19580      5.53263      1.93095         1.163006     -0.680272     -0.106242
Ti	     11.02940      7.37259      5.75591         0.693624      1.351160      2.174155
Ti	     11.03726      1.84768      0.00850         4.206042     -2.290498     -1.584421
Ti	     12.88620      3.68541      3.83981         4.649133     -0.305680     -1.315667
Ti	     11.03933      5.53767      0.01308         4.850878      0.459246     -1.855323
Ti	     12.88616      7.37664      3.84480         4.357913      0.838792     -1.878008
Ti	      3.69694      1.84234      0.01338        -0.866818     -3.287085     -2.478927
Ti	      5.52987      3.68500      3.83661        -0.689093     -2.906713      0.680735
Ti	      3.69888      5.54278      0.02007        -2.135566      0.431574     -3.093503
Ti	      5.53268      7.37810      3.84300        -1.708909      0.807318     -0.289935
Ti	      7.35562      1.84887      0.00997        -0.797361     -2.854276     -2.344038
Ti	      9.19668      3.68418      3.83446         0.077640     -2.983866      0.921483
Ti	      7.35558      5.53539      0.01574        -0.958417      1.334740     -3.078476
Ti	      9.19734      7.37728      3.84234         0.871506      0.793572      0.407949
O	      1.84218      1.84648      0.05963        -3.380315     -1.539086     -1.913517
O	      3.65003      3.68640      3.83526        -3.234294     -0.468911     -0.497999
O	      1.84246      5.53895      0.06852        -3.078265     -0.176403     -1.815102
O	      3.65024      7.37736      3.84608        -3.343903      0.361589     -0.839715
O	      5.52148      1.84591      0.00978        -0.308836     -0.934592     -3.242341
O	      7.36306      3.68576      3.84007        -0.091443     -0.922954     -1.943905
O	      5.52259      5.53802      0.01512         0.115216     -0.028676     -3.636968
O	      7.36381      7.37682      3.84474        -0.075523      0.138003     -2.417676
O	      9.20367      1.84670      0.00662         1.732132     -1.129241     -3.755899
O	     11.07729      3.68605      3.83213         0.343865     -0.505224     -2.314778
O	      9.20579      5.53710      0.01566         1.547967      0.334149     -4.344044
O	     11.08024      7.37621      3.84278         0.832917      0.434913     -2.194676
O	      3.64914      1.84306      1.92570        -0.629617     -0.900611      2.075897
O	      5.52399      3.68261      5.75208        -1.035124     -1.013797      3.057758
O	      3.64919      5.53282      1.93252        -0.518329      0.059854      1.944624
O	      5.52316      7.37329      5.75803        -0.899686     -0.015293      2.882515
O	      7.36446      1.84205      1.92055         0.007062     -1.476117      2.073783
O	      9.20427      3.68139      5.74894         0.054308     -1.090582      3.089406
O	      7.36580      5.53362      1.92693        -0.064605      0.377933      1.956524
O	      9.20656      7.37251      5.75699         0.024482      0.084969      3.529072
O	     11.07795      1.84117      1.92294         3.160264     -1.009239      0.562789
O	     12.88490      3.68087      5.70151         4.238302     -0.752566      2.186558
O	     11.07860      5.53308      1.92745         3.272409      0.068473      0.410156
O	     12.88576      7.37338      5.70691         4.364638      0.047746      2.106942
O	      0.01276      7.38369      0.02390        -3.007204      1.308995     -0.560092
O	      0.01246      3.69297      0.01874        -2.879460     -0.086410     -0.471714
O	      3.67314      7.38327      0.03292        -0.622568      3.365893     -1.274588
O	      5.52226      9.22177      3.85267         0.170907      3.305389      0.983749
O	      3.67179      3.69280      0.01769        -0.355935     -0.721910     -1.123339
O	      5.52100      5.53232      3.84358         0.338626     -0.066434      2.300993
O	     11.04532      3.67778      7.65028         2.355129     -0.570633      3.213256
O	      9.20863      9.22148      3.84872         0.009811      3.242891      0.991728
O	      7.36350      3.69226      0.00884         0.080249      0.149356     -0.854140
O	      9.20772      5.53110      3.84066        -0.126505      0.015600      2.312979
O	      3.67127      5.52718      5.74623        -1.306601     -0.580037      1.478375
O	      3.67312      9.21970      5.75336        -1.422772      3.235003      1.290151
O	      5.52137      3.68874      1.92369         0.165889     -0.991034     -2.599756
O	      7.36361      5.53009      5.75914         0.195589     -0.694052      1.291101
O	      5.52180      7.37872      1.93286         0.494288      3.818545     -1.946932
O	      7.36408      9.21639      5.76693         0.274559      3.641566      1.266895
O	      9.20690      3.68819      1.92014        -0.007347     -0.943971     -3.054398
O	     11.05561      5.52583      5.74437         0.163152     -0.627594      0.871774
O	      9.20848      7.37847      1.92973        -0.314840      4.029021     -2.797508
O	     11.05735      9.21989      5.75099         0.364499      3.695622      0.956390
