# total energy = -656.28958837 eV
 
CRYSTAL
PRIMVEC
11.747984 -0.000858 0.002265 
0.002023 7.852930 0.015447 
3.916785 3.911329 8.140970 
PRIMCOORD
92 1
Li	      5.64761      7.52438      7.71511         0.558989      0.925734      0.941122
Li	      3.80242      5.64844      3.89154        -0.984210      0.027265      0.256025
Li	      5.64206      3.75677      7.70754         0.705615     -0.185303      1.249058
Li	      3.79994      1.87985      3.88334        -0.741210     -0.842069      0.491449
Li	      5.63779      3.76935      0.02199        -0.164565     -0.042790     -0.384441
Li	      7.51895      5.64541      3.92884         0.013254     -0.000718      0.052032
Li	      5.64468      7.54131      0.02946        -0.753125      0.649198     -0.207556
Li	      7.52179      9.42023      3.93570         0.000205      0.712642      0.237514
Li	      9.39496      3.76896      0.03888         0.060441     -0.092867     -0.644540
Li	     11.24080      5.64862      3.89022         0.663170     -0.022232     -0.238362
Li	      9.39461      7.54104      0.04632        -0.088131      0.845564     -0.667089
Li	     11.23926      1.87776      3.88143         0.553384     -0.936003     -0.039902
Li	      3.80017      3.76647      1.99909        -0.693143     -0.037593      0.153856
Li	      5.64457      5.64264      5.84843        -0.053435      0.014079      0.506763
Li	      3.80190      7.53686      2.00884        -0.680350      0.811562     -0.035694
Li	      5.64716      9.41623      5.85291        -0.076901      0.747487      0.422154
Li	      7.51937      3.76535      1.95860        -0.031981     -0.063609      0.076982
Li	      9.39957      5.64283      5.86497         0.113824     -0.029144      0.472673
Li	      7.52158      7.53687      1.96382        -0.110351      0.715220     -0.204196
Li	      9.39946      9.41455      5.87048         0.117084      0.720586      0.153955
Li	     11.24113      3.76471      1.99875         1.087043     -0.026332     -0.238018
Li	     13.15478      5.64326      5.99036         0.810700      0.003103      0.241346
Li	     11.23977      7.53523      2.00668         0.993440      0.669159     -0.481670
Li	     13.15503      9.41356      5.99650         0.755963      0.661540     -0.102894
Ti	      1.88104      1.88188      1.96203        -3.344860     -0.710888      0.986344
Ti	      3.76734      3.76049      5.86995        -2.574181     -1.919279      1.282999
Ti	      1.88310      5.64999      1.97189        -3.518741     -0.013909      0.345583
Ti	      3.76847      7.52730      5.88276        -2.726921      0.973354      0.718942
Ti	      5.64808      1.88311      1.96515        -0.399123     -1.832270      0.054173
Ti	      7.52637      3.76056      5.87506         0.625163     -2.135986      1.721178
Ti	      5.64913      5.64922      1.97052        -0.350552     -0.385401     -0.313591
Ti	      7.52903      7.52869      5.87607         0.602947      0.738063      1.757424
Ti	      9.39158      1.88181      1.96198         0.961751     -1.754083      0.445117
Ti	     11.26425      3.75962      5.86489         0.341493     -1.713585      0.991997
Ti	      9.39041      5.64972      1.97181         0.998207     -0.564910     -0.075955
Ti	     11.26283      7.52862      5.87772         0.612531      0.988717      1.515335
Ti	     11.27085      1.88678      0.00868         3.299044     -1.921990     -1.029640
Ti	     13.15892      3.76341      3.92107         3.569368     -0.230902     -0.902667
Ti	     11.27296      5.65488      0.01336         3.733049      0.374672     -1.230485
Ti	     13.15888      7.53275      3.92617         3.330131      0.664374     -1.287902
Ti	      3.77518      1.88133      0.01367        -0.698186     -2.393262     -1.734131
Ti	      5.64690      3.76299      3.91781        -0.603431     -2.069732      0.499188
Ti	      3.77716      5.66009      0.02049        -1.690128      0.295908     -2.196497
Ti	      5.64977      7.53425      3.92433        -1.370275      0.557317     -0.131594
Ti	      7.51130      1.88800      0.01018        -0.702850     -1.958285     -1.818856
Ti	      9.39132      3.76215      3.91560         0.051983     -2.143435      0.664849
Ti	      7.51125      5.65253      0.01608        -0.806444      0.790188     -2.341073
Ti	      9.39199      7.53341      3.92366         0.671409      0.572845      0.368649
O	      1.88116      1.88556      0.06089        -2.562528     -1.116414     -1.412045
O	      3.72727      3.76441      3.91643        -2.363693     -0.358071     -0.268131
O	      1.88145      5.65618      0.06997        -2.337728     -0.138932     -1.341686
O	      3.72749      7.53349      3.92747        -2.498189      0.282843     -0.529082
O	      5.63834      1.88497      0.00998        -0.282058     -0.706773     -2.405193
O	      7.51888      3.76376      3.92134        -0.063334     -0.692246     -1.422037
O	      5.63947      5.65522      0.01544         0.042187     -0.040479     -2.696498
O	      7.51966      7.53295      3.92611        -0.056632      0.102875     -1.790398
O	      9.39845      1.88578      0.00677         1.394281     -0.878315     -2.823601
O	     11.31172      3.76405      3.91323         0.265469     -0.384516     -1.660926
O	      9.40062      5.65428      0.01599         1.252208      0.255627     -3.248372
O	     11.31474      7.53231      3.92411         0.658725      0.318447     -1.603787
O	      3.72637      1.88207      1.96646        -0.476959     -0.679237      1.509198
O	      5.64090      3.76055      5.87381        -0.788066     -0.750841      2.246501
O	      3.72643      5.64991      1.97341        -0.431482      0.042708      1.396208
O	      5.64004      7.52933      5.87988        -0.678825      0.003275      2.104717
O	      7.52032      1.88104      1.96120         0.008241     -1.140265      1.495116
O	      9.39906      3.75930      5.87060         0.067941     -0.817744      2.289658
O	      7.52168      5.65073      1.96771        -0.055618      0.313827      1.405007
O	      9.40139      7.52854      5.87882         0.043248      0.087129      2.590002
O	     11.31240      1.88013      1.96363         2.309840     -0.747966      0.343445
O	     13.15758      3.75877      5.82217         3.211491     -0.575047      1.655236
O	     11.31306      5.65018      1.96824         2.426927      0.050588      0.236356
O	     13.15846      7.52943      5.82769         3.314802      0.046516      1.585216
O	      0.01304      7.53995      0.02441        -2.432046      1.220226     -0.621547
O	      0.01272      3.77113      0.01914        -2.381171     -0.146236     -0.546019
O	      3.75087      7.53952      0.03362        -0.444962      2.398293     -1.023199
O	      5.63913      9.41693      3.93421         0.206004      2.415228      0.806305
O	      3.74949      3.77095      0.01807        -0.259052     -0.519379     -0.876085
O	      5.63784      5.64940      3.92493         0.294968      0.008842      1.695975
O	     11.27908      3.75561      7.81219         1.801754     -0.524896      2.590572
O	      9.40352      9.41664      3.93018        -0.042978      2.367930      0.813649
O	      7.51934      3.77040      0.00903         0.034713      0.102641     -0.588532
O	      9.40258      5.64815      3.92193        -0.116747      0.070934      1.705595
O	      3.74896      5.64415      5.86783        -1.029747     -0.423688      1.132612
O	      3.75087      9.41483      5.87513        -1.145705      2.440668      1.079869
O	      5.63822      3.76682      1.96441         0.147529     -0.768242     -1.911966
O	      7.51946      5.64712      5.88103         0.177078     -0.521132      0.956166
O	      5.63866      7.53488      1.97377         0.388394      2.776982     -1.343814
O	      7.51993      9.41145      5.88898         0.245289      2.700598      1.014855
O	      9.40175      3.76624      1.96078        -0.038772     -0.727018     -2.289026
O	     11.28958      5.64277      5.86594         0.136119     -0.463052      0.693802
O	      9.40337      7.53462      1.97057        -0.293724      2.911706     -2.022928
O	     11.29135      9.41501      5.87270         0.285718      2.770603      0.778856
