# total energy = -92.10932040 eV
 
CRYSTAL
PRIMVEC
0.000015 4.130309 0.000011 
4.096668 -0.000007 4.096286 
4.229507 -0.000008 -4.229330 
PRIMCOORD
16 1
Li	      2.17328      2.06611     -0.12627         0.001867      0.000217     -0.000825
Li	      4.11560      0.00122     -0.11136        -0.024218     -0.001674     -0.024155
Li	      2.15711      0.00075     -2.06871         0.024886     -0.000833      0.023954
Li	      4.10103      2.06612     -2.05383        -0.002185     -0.000455      0.001471
Mn	      4.24954      0.00080     -4.20630         0.040256      0.000282      0.038390
Mn	      6.25395      0.00073     -2.20225        -0.038763      0.000769     -0.040386
Ni	      6.18712      2.06594     -0.04333         0.051340     -0.000126     -0.052107
Ni	      4.18331      2.06592      1.96029        -0.051221      0.000153      0.051062
O	      4.20964      2.06603     -0.01728        -0.070121      0.000271     -0.068636
O	      6.37357      0.00077     -0.22962        -0.015808      0.000335      0.015957
O	      6.16087      2.06588      1.93410         0.068469      0.000172      0.070672
O	      4.33043      0.00079     -2.28281        -0.048991      0.000493      0.047702
O	      6.32973      2.06589     -2.12651        -0.001400     -0.000199     -0.000970
O	      3.99711      0.00076      2.14667         0.015137      0.000686     -0.016189
O	      8.27033      2.06591     -0.18573         0.002026     -0.000593      0.001487
O	      1.94362      0.00078      0.10353         0.048726      0.000502     -0.047426
