# total energy = -672.06920573 eV
 
CRYSTAL
PRIMVEC
11.931546 -0.000871 0.002301 
0.002054 7.975632 0.015689 
3.977985 3.972444 8.268173 
PRIMCOORD
92 1
Li	      5.82547      7.76136      7.95810         0.276067      0.532336      0.614766
Li	      3.92218      5.82633      4.01410        -0.580887      0.016400      0.152481
Li	      5.81975      3.87509      7.95028         0.324609     -0.137804      0.761769
Li	      3.91962      1.93906      4.00564        -0.464876     -0.516351      0.290807
Li	      5.81534      3.88806      0.02268        -0.110640     -0.036387     -0.224777
Li	      7.75574      5.82321      4.05257         0.007922      0.002213      0.039013
Li	      5.82245      7.77882      0.03039        -0.372733      0.402822     -0.158621
Li	      7.75868      9.71692      4.05966         0.000185      0.419346      0.163175
Li	      9.69084      3.88766      0.04010         0.054713     -0.055350     -0.385266
Li	     11.59481      5.82653      4.01275         0.391702     -0.005798     -0.176251
Li	      9.69048      7.77854      0.04778        -0.000636      0.465688     -0.384749
Li	     11.59324      1.93690      4.00368         0.341307     -0.554456     -0.050317
Li	      3.91985      3.88509      2.06205        -0.418145     -0.024886      0.124329
Li	      5.82234      5.82034      6.03262        -0.033083      0.012635      0.305983
Li	      3.92165      7.77423      2.07211        -0.402824      0.464264      0.009176
Li	      5.82500      9.71279      6.03724        -0.049975      0.424161      0.250859
Li	      7.75619      3.88394      2.02028        -0.011957     -0.044902      0.034856
Li	      9.69560      5.82054      6.04968         0.082318     -0.016720      0.274463
Li	      7.75846      7.77425      2.02567        -0.064137      0.410904     -0.124875
Li	      9.69549      9.71106      6.05536         0.087369      0.422977      0.073397
Li	     11.59516      3.88327      2.06170         0.648943     -0.008539     -0.126358
Li	     13.56907      5.82099      6.17902         0.504591      0.009699      0.141772
Li	     11.59377      7.77255      2.06989         0.602091      0.399228     -0.280576
Li	     13.56935      9.71004      6.18536         0.482602      0.379100     -0.063926
Ti	      1.94029      1.94115      2.02381        -2.043965     -0.454373      0.434052
Ti	      3.88598      3.87893      6.05481        -1.520619     -0.963936      0.605109
Ti	      1.94240      5.82793      2.03398        -2.132997     -0.016387      0.061388
Ti	      3.88715      7.76437      6.06803        -1.604837      0.418991      0.228048
Ti	      5.82596      1.94242      2.02704        -0.245926     -0.943672     -0.111484
Ti	      7.76340      3.87899      6.06010         0.378263     -1.083341      0.896688
Ti	      5.82704      5.82714      2.03259        -0.203132     -0.247853     -0.223566
Ti	      7.76615      7.76581      6.06114         0.357430      0.330011      0.921417
Ti	      9.68736      1.94107      2.02377         0.659589     -0.890635      0.167770
Ti	     11.61901      3.87803      6.04961         0.245505     -0.903512      0.445951
Ti	      9.68615      5.82765      2.03391         0.685873     -0.377215     -0.067628
Ti	     11.61754      7.76573      6.06284         0.440968      0.507339      0.750878
Ti	     11.62582      1.94620      0.00895         2.112450     -1.247484     -0.442974
Ti	     13.57335      3.88194      4.04457         2.170517     -0.132454     -0.413443
Ti	     11.62800      5.83298      0.01378         2.382790      0.217815     -0.550773
Ti	     13.57331      7.76999      4.04982         2.056067      0.401536     -0.599384
Ti	      3.89407      1.94058      0.01409        -0.436738     -1.283251     -0.867163
Ti	      5.82475      3.88150      4.04120        -0.416309     -1.085573      0.278889
Ti	      3.89612      5.83834      0.02113        -1.015330      0.114174     -1.124870
Ti	      5.82769      7.77154      4.04793        -0.842343      0.277464      0.027964
Ti	      7.74785      1.94746      0.01050        -0.483011     -0.935037     -1.088786
Ti	      9.68710      3.88063      4.03893         0.021937     -1.153716      0.357321
Ti	      7.74781      5.83056      0.01659        -0.509503      0.274211     -1.370795
Ti	      9.68777      7.77068      4.04723         0.382092      0.320482      0.280554
O	      1.94041      1.94494      0.06281        -1.538518     -0.580826     -0.790326
O	      3.84466      3.88297      4.03978        -1.354356     -0.210828     -0.046701
O	      1.94070      5.83431      0.07217        -1.421978     -0.082130     -0.758395
O	      3.84488      7.77075      4.05116        -1.491794      0.184663     -0.209257
O	      5.81591      1.94434      0.01030        -0.226289     -0.419932     -1.348573
O	      7.75569      3.88230      4.04484        -0.023867     -0.405183     -0.771174
O	      5.81708      5.83333      0.01593        -0.037845     -0.032052     -1.524576
O	      7.75648      7.77019      4.04976        -0.024043      0.064622     -0.999501
O	      9.69445      1.94517      0.00698         0.868561     -0.544524     -1.609004
O	     11.66798      3.88260      4.03648         0.171847     -0.216415     -0.865324
O	      9.69669      5.83236      0.01650         0.764503      0.156488     -1.838240
O	     11.67108      7.76953      4.04770         0.411900      0.189331     -0.870126
O	      3.84373      1.94134      2.02839        -0.287897     -0.397180      0.813770
O	      5.81856      3.87898      6.05880        -0.452994     -0.423142      1.235533
O	      3.84379      5.82785      2.03557        -0.294755      0.026058      0.733834
O	      5.81768      7.76646      6.06506        -0.384656      0.021115      1.148311
O	      7.75716      1.94028      2.02297         0.008796     -0.691311      0.800017
O	      9.69508      3.87770      6.05549         0.065835     -0.466361      1.284208
O	      7.75858      5.82869      2.02968        -0.034787      0.201838      0.747978
O	      9.69748      7.76564      6.06397         0.062342      0.074066      1.433370
O	     11.66868      1.93935      2.02548         1.335519     -0.420787      0.125501
O	     13.57197      3.87716      6.00554         1.913999     -0.344804      0.958602
O	     11.66936      5.82813      2.03023         1.428703      0.029839      0.060412
O	     13.57287      7.76657      6.01123         1.966590      0.038256      0.919727
O	      0.01344      7.77742      0.02518        -1.616860      0.890156     -0.539852
O	      0.01313      3.88990      0.01974        -1.608670     -0.138171     -0.459597
O	      3.86900      7.77698      0.03468        -0.231693      1.263401     -0.670749
O	      5.81672      9.71352      4.05811         0.169332      1.319509      0.489811
O	      3.86758      3.88971      0.01864        -0.132639     -0.269518     -0.529506
O	      5.81540      5.82732      4.04854         0.200281      0.058474      0.933363
O	     11.63430      3.87389      8.05823         1.024568     -0.375718      1.632720
O	      9.69967      9.71321      4.05396        -0.070143      1.290021      0.501994
O	      7.75614      3.88913      0.00931        -0.009095      0.051662     -0.299424
O	      9.69871      5.82604      4.04546        -0.093469      0.099398      0.932920
O	      3.86702      5.82191      6.05264        -0.659972     -0.238361      0.666160
O	      3.86899      9.71134      6.06016        -0.746963      1.431545      0.749413
O	      5.81579      3.88544      2.02628         0.098568     -0.457304     -1.043689
O	      7.75628      5.82497      6.06624         0.134374     -0.310925      0.536627
O	      5.81624      7.77218      2.03594         0.233074      1.517838     -0.656971
O	      7.75675      9.70785      6.07445         0.178973      1.538461      0.676141
O	      9.69784      3.88486      2.02253        -0.063837     -0.423626     -1.291189
O	     11.64514      5.82049      6.05068         0.090187     -0.245191      0.428892
O	      9.69952      7.77192      2.03263        -0.224876      1.555885     -1.070445
O	     11.64697      9.71153      6.05766         0.170745      1.587494      0.527022
