# total energy = -675.47468903 eV
 
CRYSTAL
PRIMVEC
11.992733 -0.000876 0.002313 
0.002065 8.016533 0.015769 
3.998385 3.992815 8.310573 
PRIMCOORD
92 1
Li	      5.88538      7.84116      8.03993         0.201852      0.412248      0.491509
Li	      3.96250      5.88624      4.05537        -0.459419      0.009854      0.118559
Li	      5.87960      3.91493      8.03203         0.227236     -0.115363      0.599939
Li	      3.95993      1.95899      4.04684        -0.380088     -0.414232      0.225367
Li	      5.87514      3.92804      0.02292        -0.090281     -0.031874     -0.178952
Li	      7.83550      5.88309      4.09424         0.007840      0.005937      0.032419
Li	      5.88232      7.85881      0.03071        -0.271719      0.318980     -0.135041
Li	      7.83846      9.81683      4.10140         0.002550      0.327560      0.129187
Li	      9.79048      3.92764      0.04052         0.055816     -0.042211     -0.303101
Li	     11.71405      5.88644      4.05401         0.311592     -0.006955     -0.152752
Li	      9.79013      7.85852      0.04827         0.022434      0.354958     -0.300877
Li	     11.71244      1.95682      4.04485         0.272280     -0.433197     -0.051654
Li	      3.96017      3.92504      2.08325        -0.337496     -0.021540      0.107241
Li	      5.88221      5.88020      6.09465        -0.025415      0.014968      0.251845
Li	      3.96197      7.85417      2.09342        -0.318772      0.361618      0.012575
Li	      5.88491      9.81266      6.09932        -0.036225      0.327295      0.203374
Li	      7.83594      3.92387      2.04105        -0.010944     -0.029945      0.029210
Li	      9.79529      5.88040      6.11189         0.066857     -0.004505      0.218287
Li	      7.83824      7.85418      2.04650        -0.054195      0.319361     -0.097845
Li	      9.79518      9.81091      6.11762         0.069933      0.332048      0.059127
Li	     11.71438      3.92320      2.08290         0.517057     -0.007861     -0.096209
Li	     13.70861      5.88085      6.24256         0.409399      0.005829      0.109617
Li	     11.71298      7.85247      2.09117         0.481844      0.319398     -0.226039
Li	     13.70888      9.80989      6.24896         0.394792      0.301501     -0.051571
Ti	      1.96024      1.96110      2.04462        -1.650916     -0.368638      0.296243
Ti	      3.92595      3.91881      6.11707        -1.225871     -0.714615      0.433259
Ti	      1.96238      5.88786      2.05490        -1.716130     -0.012562      0.002035
Ti	      3.92712      7.84421      6.13042        -1.281543      0.281397      0.119359
Ti	      5.88587      1.96239      2.04789        -0.189935     -0.720283     -0.120019
Ti	      7.84323      3.91887      6.12241         0.301512     -0.808453      0.680138
Ti	      5.88696      5.88706      2.05348        -0.157525     -0.194348     -0.196802
Ti	      7.84600      7.84566      6.12345         0.277986      0.224699      0.697462
Ti	      9.78697      1.96103      2.04458         0.532750     -0.672376      0.120598
Ti	     11.73849      3.91791      6.11181         0.214952     -0.689377      0.314524
Ti	      9.78576      5.88758      2.05483         0.558022     -0.302183     -0.059471
Ti	     11.73700      7.84558      6.12518         0.378418      0.369728      0.550141
Ti	     11.74536      1.96621      0.00905         1.741956     -0.999713     -0.309725
Ti	     13.71291      3.92185      4.08615         1.741716     -0.102920     -0.283512
Ti	     11.74757      5.89295      0.01393         1.973897      0.162077     -0.389554
Ti	     13.71288      7.84988      4.09146         1.667728      0.317693     -0.420353
Ti	      3.93411      1.96054      0.01424        -0.354985     -0.969683     -0.644167
Ti	      5.88464      3.92140      4.08275        -0.340754     -0.824461      0.209089
Ti	      3.93619      5.89838      0.02135        -0.803652      0.062613     -0.838943
Ti	      5.88762      7.85145      4.08955        -0.663231      0.211940      0.047597
Ti	      7.82753      1.96748      0.01061        -0.390977     -0.677041     -0.859501
Ti	      9.78670      3.92053      4.08045         0.013808     -0.885276      0.273133
Ti	      7.82747      5.89051      0.01676        -0.400041      0.171032     -1.076382
Ti	      9.78739      7.85057      4.08885         0.289113      0.254616      0.233695
O	      1.96037      1.96494      0.06346        -1.228114     -0.435359     -0.614314
O	      3.88420      3.92290      4.08132        -1.070035     -0.170024     -0.006563
O	      1.96065      5.89431      0.07292        -1.146564     -0.062293     -0.593575
O	      3.88443      7.85066      4.09282        -1.200744      0.148191     -0.131869
O	      5.87571      1.96433      0.01041        -0.197003     -0.329613     -1.042563
O	      7.83544      3.92222      4.08643        -0.018882     -0.320085     -0.587286
O	      5.87689      5.89331      0.01610        -0.045643     -0.023674     -1.179543
O	      7.83624      7.85009      4.09140        -0.017296      0.053818     -0.768537
O	      9.79413      1.96517      0.00705         0.695126     -0.434152     -1.242509
O	     11.78796      3.92253      4.07799         0.141163     -0.171188     -0.644531
O	      9.79639      5.89233      0.01667         0.592742      0.124243     -1.420727
O	     11.79110      7.84943      4.08931         0.331132      0.150875     -0.659153
O	      3.88325      1.96131      2.04925        -0.230128     -0.314576      0.616299
O	      5.87840      3.91887      6.12110        -0.342302     -0.328778      0.937393
O	      3.88330      5.88778      2.05649        -0.242610      0.023404      0.550566
O	      5.87750      7.84632      6.12743        -0.291273      0.021198      0.878570
O	      7.83693      1.96023      2.04377         0.008186     -0.548426      0.607663
O	      9.79478      3.91757      6.11776         0.056033     -0.361612      0.988886
O	      7.83836      5.88863      2.05055        -0.028291      0.161150      0.564816
O	      9.79720      7.84549      6.12633         0.057727      0.065730      1.101738
O	     11.78867      1.95929      2.04631         1.064696     -0.327382      0.071340
O	     13.71152      3.91702      6.06729         1.520324     -0.274495      0.747619
O	     11.78936      5.88806      2.05111         1.144228      0.024689      0.028335
O	     13.71244      7.84642      6.07304         1.556994      0.032032      0.719949
O	      0.01358      7.85739      0.02544        -1.331997      0.735887     -0.466223
O	      0.01326      3.92990      0.01994        -1.337898     -0.114474     -0.390489
O	      3.90878      7.85694      0.03503        -0.170817      0.960513     -0.550547
O	      5.87654      9.81340      4.09984         0.145777      1.014431      0.384184
O	      3.90735      3.92970      0.01883        -0.099653     -0.199725     -0.421025
O	      5.87520      5.88724      4.09017         0.167023      0.056357      0.714384
O	     11.75394      3.91372      8.14109         0.785500     -0.310004      1.304346
O	      9.79941      9.81309      4.09564        -0.069900      0.987181      0.393127
O	      7.83591      3.92913      0.00942        -0.020916      0.041313     -0.223964
O	      9.79844      5.88595      4.08705        -0.081485      0.093259      0.708955
O	      3.90680      5.88177      6.11488        -0.535899     -0.178811      0.527069
O	      3.90878      9.81119      6.12247        -0.611194      1.128378      0.630747
O	      5.87559      3.92540      2.04711         0.081982     -0.354502     -0.786301
O	      7.83603      5.88487      6.12862         0.115299     -0.247861      0.414397
O	      5.87605      7.85210      2.05687         0.182532      1.160984     -0.478214
O	      7.83651      9.80767      6.13692         0.149615      1.201742      0.557112
O	      9.79757      3.92480      2.04332        -0.064107     -0.327281     -0.990099
O	     11.76489      5.88034      6.11290         0.070488     -0.179641      0.344217
O	      9.79926      7.85184      2.05353        -0.189520      1.177406     -0.807962
O	     11.76672      9.81139      6.11995         0.132478      1.233437      0.441228
