# total energy = -678.05247985 eV
 
CRYSTAL
PRIMVEC
12.053921 -0.000880 0.002324 
0.002075 8.057434 0.015850 
4.018785 4.013187 8.352974 
PRIMCOORD
92 1
Li	      5.94558      7.92138      8.12217         0.130212      0.301379      0.373293
Li	      4.00304      5.94646      4.09686        -0.348150      0.013078      0.080226
Li	      5.93974      3.95499      8.11420         0.142409     -0.090480      0.448186
Li	      4.00043      1.97904      4.08823        -0.292090     -0.313810      0.158265
Li	      5.93524      3.96823      0.02314        -0.067202     -0.027046     -0.135085
Li	      7.91566      5.94327      4.13612         0.008581      0.005841      0.027510
Li	      5.94250      7.93920      0.03102        -0.187099      0.235394     -0.105514
Li	      7.91865      9.91726      4.14336         0.002447      0.243560      0.099341
Li	      9.89065      3.96783      0.04093         0.053991     -0.030515     -0.226712
Li	     11.83388      5.94666      4.09548         0.239325     -0.000940     -0.125654
Li	      9.89029      7.93892      0.04877         0.035191      0.252636     -0.221578
Li	     11.83227      1.97683      4.08623         0.210725     -0.319608     -0.046528
Li	      4.00068      3.96519      2.10456        -0.257285     -0.016102      0.084123
Li	      5.94239      5.94035      6.15700        -0.021494      0.016263      0.189161
Li	      4.00250      7.93452      2.11483        -0.238645      0.261473      0.017124
Li	      5.94511      9.91305      6.16172        -0.028857      0.233821      0.155933
Li	      7.91611      3.96401      2.06193        -0.011441     -0.020974      0.019428
Li	      9.89550      5.94055      6.17441         0.050967     -0.002533      0.164712
Li	      7.91843      7.93453      2.06743        -0.044212      0.228909     -0.069781
Li	      9.89538      9.91127      6.18021         0.054725      0.244353      0.045379
Li	     11.83423      3.96334      2.10421         0.388842     -0.006931     -0.069638
Li	     13.84884      5.94101      6.30642         0.309790      0.009507      0.078497
Li	     11.83280      7.93280      2.11256         0.364877      0.242188     -0.163549
Li	     13.84912      9.91024      6.31288         0.304202      0.221562     -0.038225
Ti	      1.98029      1.98117      2.06554        -1.263449     -0.279873      0.176612
Ti	      3.96611      3.95890      6.17965        -0.941310     -0.493808      0.282328
Ti	      1.98245      5.94809      2.07592        -1.308068     -0.008597     -0.043603
Ti	      3.96730      7.92445      6.19314        -0.969226      0.169365      0.031716
Ti	      5.94608      1.98247      2.06884        -0.141965     -0.531713     -0.114432
Ti	      7.92347      3.95897      6.18504         0.227278     -0.568520      0.485661
Ti	      5.94719      5.94728      2.07449        -0.119699     -0.130415     -0.168130
Ti	      7.92628      7.92592      6.18610         0.200451      0.139529      0.495224
Ti	      9.88709      1.98109      2.06550         0.406525     -0.487160      0.080335
Ti	     11.85857      3.95799      6.17434         0.181361     -0.498707      0.202817
Ti	      9.88586      5.94781      2.07584         0.427350     -0.215695     -0.060306
Ti	     11.85707      7.92584      6.18784         0.308483      0.251351      0.367945
Ti	     11.86552      1.98633      0.00913         1.366514     -0.746308     -0.194814
Ti	     13.85320      3.96198      4.12796         1.321564     -0.072275     -0.173553
Ti	     11.86775      5.95324      0.01407         1.557208      0.109826     -0.244135
Ti	     13.85316      7.93018      4.13332         1.282849      0.236449     -0.264567
Ti	      3.97435      1.98059      0.01438        -0.279889     -0.683899     -0.445124
Ti	      5.94484      3.96152      4.12452        -0.263272     -0.587054      0.148825
Ti	      3.97646      5.95872      0.02157        -0.604535      0.023372     -0.581959
Ti	      5.94786      7.93177      4.13138        -0.490940      0.155659      0.049911
Ti	      7.90761      1.98761      0.01072        -0.291292     -0.460404     -0.634957
Ti	      9.88682      3.96064      4.12220         0.009715     -0.637910      0.203070
Ti	      7.90755      5.95077      0.01693        -0.288126      0.099341     -0.792773
Ti	      9.88751      7.93089      4.13067         0.205461      0.194738      0.183983
O	      1.98041      1.98504      0.06411        -0.923704     -0.307343     -0.449834
O	      3.92394      3.96303      4.12307        -0.804260     -0.130085      0.024266
O	      1.98071      5.95461      0.07366        -0.871409     -0.043602     -0.438089
O	      3.92415      7.93097      4.13469        -0.917718      0.122241     -0.069995
O	      5.93582      1.98443      0.01051        -0.154083     -0.239531     -0.749733
O	      7.91559      3.96235      4.12824        -0.009403     -0.239455     -0.413793
O	      5.93702      5.95359      0.01626        -0.045223     -0.020218     -0.857599
O	      7.91640      7.93040      4.13326        -0.006229      0.044340     -0.553649
O	      9.89433      1.98528      0.00712         0.511838     -0.325891     -0.895404
O	     11.90855      3.96266      4.11970         0.111460     -0.123402     -0.451017
O	      9.89662      5.95261      0.01684         0.425877      0.090584     -1.024251
O	     11.91173      7.92973      4.13115         0.250184      0.111826     -0.466330
O	      3.92298      1.98137      2.07021        -0.170327     -0.231735      0.433395
O	      5.93853      3.95896      6.18372        -0.243270     -0.240901      0.658436
O	      3.92304      5.94801      2.07754        -0.184972      0.020463      0.392968
O	      5.93762      7.92659      6.19011        -0.204179      0.018618      0.622290
O	      7.91711      1.98029      2.06468         0.003421     -0.408732      0.429595
O	      9.89497      3.95764      6.18034         0.045583     -0.257240      0.710062
O	      7.91854      5.94887      2.07153        -0.020208      0.122832      0.401941
O	      9.89743      7.92576      6.18900         0.048399      0.048916      0.793556
O	     11.90926      1.97933      2.06723         0.801929     -0.236981      0.027274
O	     13.85179      3.95709      6.12935         1.142924     -0.211553      0.557383
O	     11.90996      5.94829      2.07209         0.865843      0.022189     -0.003331
O	     13.85272      7.92669      6.13517         1.160382      0.023399      0.541959
O	      0.01372      7.93777      0.02570        -1.038163      0.564457     -0.384654
O	      0.01340      3.97010      0.02014        -1.047083     -0.088779     -0.303932
O	      3.94877      7.93732      0.03539        -0.114619      0.684727     -0.429983
O	      5.93666      9.91379      4.14178         0.118525      0.741461      0.284720
O	      3.94733      3.96991      0.01903        -0.063465     -0.144111     -0.309270
O	      5.93530      5.94747      4.13201         0.131518      0.038886      0.511308
O	     11.87418      3.95377      8.22437         0.563822     -0.235871      0.979413
O	      9.89966      9.91348      4.13754        -0.058280      0.719027      0.290496
O	      7.91607      3.96932      0.00951        -0.031870      0.023996     -0.161688
O	      9.89868      5.94617      4.12887        -0.063677      0.069240      0.506945
O	      3.94676      5.94194      6.17743        -0.413103     -0.132560      0.386960
O	      3.94877      9.91157      6.18511        -0.472125      0.843463      0.506341
O	      5.93570      3.96556      2.06805         0.067040     -0.258692     -0.552352
O	      7.91620      5.94508      6.19132         0.094279     -0.184361      0.296907
O	      5.93616      7.93243      2.07792         0.140235      0.833948     -0.326255
O	      7.91668      9.90800      6.19969         0.116209      0.882447      0.432307
O	      9.89780      3.96496      2.06423        -0.057395     -0.233823     -0.707645
O	     11.88524      5.94050      6.17543         0.047348     -0.124005      0.256402
O	      9.89951      7.93216      2.07453        -0.156358      0.829385     -0.573857
O	     11.88710      9.91176      6.18255         0.091512      0.904113      0.348749
