# total energy = -679.84712659 eV
 
CRYSTAL
PRIMVEC
12.115108 -0.000885 0.002336 
0.002086 8.098334 0.015930 
4.039185 4.033558 8.395375 
PRIMCOORD
92 1
Li	      6.00609      8.00201      8.20484         0.073693      0.194642      0.240227
Li	      4.04379      6.00699      4.13856        -0.240957      0.004589      0.046191
Li	      6.00020      3.99524      8.19679         0.075900     -0.061169      0.294577
Li	      4.04115      1.99917      4.12984        -0.207518     -0.211932      0.100242
Li	      5.99565      4.00862      0.02338        -0.049936     -0.016876     -0.091962
Li	      7.99621      6.00375      4.17822         0.009350      0.007296      0.018389
Li	      6.00297      8.02001      0.03133        -0.116175      0.156123     -0.070389
Li	      7.99924     10.01820      4.18553         0.003093      0.155507      0.068562
Li	      9.99131      4.00820      0.04135         0.047755     -0.016266     -0.148473
Li	     11.95432      6.00718      4.13717         0.166020     -0.005659     -0.093702
Li	      9.99095      8.01972      0.04926         0.042705      0.160711     -0.145552
Li	     11.95270      1.99695      4.12782         0.147439     -0.211720     -0.037110
Li	      4.04139      4.00555      2.12598        -0.181394     -0.009532      0.062532
Li	      6.00287      6.00082      6.21967        -0.014451      0.015533      0.128492
Li	      4.04325      8.01527      2.13636        -0.170091      0.167117      0.022999
Li	      6.00561     10.01395      6.22444        -0.024714      0.150979      0.103688
Li	      7.99668      4.00436      2.08292        -0.005242     -0.014273      0.013387
Li	      9.99622      6.00102      6.23726         0.034412     -0.000084      0.108480
Li	      7.99902      8.01529      2.08847        -0.029069      0.149181     -0.043463
Li	      9.99609     10.01215      6.24311         0.039839      0.160839      0.032075
Li	     11.95468      4.00368      2.12563         0.268067     -0.000550     -0.043667
Li	     13.98980      6.00148      6.37060         0.214779      0.006390      0.050716
Li	     11.95324      8.01354      2.13407         0.258450      0.158564     -0.106552
Li	     13.99008     10.01110      6.37713         0.215657      0.142397     -0.023377
Ti	      2.00045      2.00133      2.08656        -0.868376     -0.189216      0.079763
Ti	      4.00648      3.99919      6.24255        -0.656778     -0.299558      0.140202
Ti	      2.00263      6.00863      2.09705        -0.895778     -0.004065     -0.069422
Ti	      4.00767      8.00510      6.25617        -0.662110      0.082636     -0.041679
Ti	      6.00661      2.00264      2.08990        -0.098954     -0.358821     -0.102033
Ti	      8.00412      3.99926      6.24800         0.153668     -0.356448      0.301562
Ti	      6.00771      6.00782      2.09561        -0.084546     -0.070191     -0.137533
Ti	      8.00695      8.00659      6.24906         0.125689      0.071862      0.306523
Ti	      9.98772      2.00125      2.08652         0.277062     -0.321420      0.039721
Ti	     11.97927      3.99828      6.23718         0.135994     -0.321796      0.099337
Ti	      9.98648      6.00834      2.09698         0.296229     -0.131993     -0.062383
Ti	     11.97775      8.00651      6.25082         0.224354      0.148954      0.198299
Ti	     11.98628      2.00655      0.00923         0.957583     -0.491543     -0.081918
Ti	     13.99421      4.00230      4.16997         0.895395     -0.045017     -0.081955
Ti	     11.98854      6.01383      0.01421         1.097113      0.064464     -0.100385
Ti	     13.99416      8.01090      4.17539         0.884230      0.155626     -0.134494
Ti	      4.01481      2.00075      0.01453        -0.200389     -0.423224     -0.259566
Ti	      6.00535      4.00184      4.16650        -0.185211     -0.371310      0.102432
Ti	      4.01693      6.01937      0.02179        -0.411389     -0.006505     -0.342929
Ti	      6.00839      8.01250      4.17343        -0.326442      0.101843      0.050807
Ti	      7.98809      2.00783      0.01082        -0.193353     -0.280449     -0.411827
Ti	      9.98745      4.00095      4.16416         0.013277     -0.404358      0.149373
Ti	      7.98804      6.01133      0.01710        -0.182484      0.052280     -0.511276
Ti	      9.98815      8.01161      4.17272         0.133239      0.130596      0.142332
O	      2.00057      2.00524      0.06476        -0.615198     -0.192479     -0.300245
O	      3.96388      4.00336      4.16504        -0.540361     -0.084416      0.042180
O	      2.00086      6.01521      0.07441        -0.592074     -0.026511     -0.301493
O	      3.96410      8.01169      4.17677        -0.629360      0.077045     -0.023952
O	      5.99624      2.00463      0.01062        -0.103408     -0.158711     -0.479587
O	      7.99616      4.00267      4.17026        -0.008088     -0.157384     -0.258932
O	      5.99745      6.01419      0.01643        -0.035138     -0.014213     -0.550188
O	      7.99697      8.01111      4.17532        -0.006425      0.026932     -0.354609
O	      9.99502      2.00548      0.00719         0.331435     -0.214815     -0.574654
O	     12.02975      4.00299      4.16163         0.077099     -0.079400     -0.269401
O	      9.99734      6.01319      0.01701         0.261568      0.054824     -0.658595
O	     12.03296      8.01044      4.17320         0.158245      0.072092     -0.291251
O	      3.96291      2.00154      2.09129        -0.110845     -0.152205      0.264673
O	      5.99897      3.99925      6.24665        -0.144585     -0.159443      0.414999
O	      3.96297      6.00855      2.09868        -0.119643      0.011632      0.239296
O	      5.99806      8.00727      6.25312        -0.122742      0.013695      0.391739
O	      7.99768      2.00044      2.08569         0.005460     -0.269968      0.267816
O	      9.99568      3.99792      6.24325         0.030061     -0.168418      0.450399
O	      7.99914      6.00942      2.09261        -0.010644      0.081104      0.251956
O	      9.99816      8.00642      6.25199         0.037992      0.039000      0.509284
O	     12.03048      1.99948      2.08828         0.547551     -0.151781     -0.004295
O	     13.99279      3.99737      6.19174         0.767158     -0.135590      0.379723
O	     12.03119      6.00883      2.09318         0.587108      0.014939     -0.023227
O	     13.99372      8.00737      6.19761         0.771721      0.014150      0.370659
O	      0.01386      8.01856      0.02596        -0.717570      0.376396     -0.287375
O	      0.01354      4.01051      0.02035        -0.726744     -0.050240     -0.216688
O	      3.98897      8.01811      0.03576        -0.066804      0.441387     -0.303913
O	      5.99708     10.01469      4.18394         0.082281      0.485538      0.180842
O	      3.98751      4.01031      0.01922        -0.034556     -0.088220     -0.206312
O	      5.99572      6.00801      4.17407         0.093029      0.018069      0.325417
O	     11.99504      3.99400      8.30808         0.356312     -0.160931      0.649181
O	     10.00042     10.01438      4.17965        -0.047124      0.468053      0.177939
O	      7.99664      4.00972      0.00961        -0.030020      0.015279     -0.099568
O	      9.99943      6.00668      4.17089        -0.051974      0.041465      0.317240
O	      3.98693      6.00242      6.24031        -0.279769     -0.081354      0.265122
O	      3.98895     10.01245      6.24806        -0.320808      0.560844      0.369897
O	      5.99611      4.00591      2.08910         0.053370     -0.166170     -0.340306
O	      7.99677      6.00558      6.25433         0.070846     -0.126559      0.193158
O	      5.99658      8.01316      2.09907         0.097864      0.535834     -0.199042
O	      7.99726     10.00884      6.26279         0.085364      0.585788      0.303869
O	      9.99854      4.00531      2.08524        -0.047194     -0.153723     -0.443611
O	     12.00621      6.00096      6.23829         0.027876     -0.069134      0.173657
O	     10.00026      8.01290      2.09565        -0.117998      0.528322     -0.359745
O	     12.00809     10.01265      6.24548         0.051095      0.585123      0.248680
