# total energy = -680.89986658 eV
 
CRYSTAL
PRIMVEC
12.176296 -0.000889 0.002348 
0.002096 8.139235 0.016011 
4.059584 4.053930 8.437776 
PRIMCOORD
92 1
Li	      6.06692      8.08303      8.28793         0.033248      0.097577      0.124491
Li	      4.08474      6.06782      4.18047        -0.141640      0.006430      0.012896
Li	      6.06096      4.03570      8.27979         0.024016     -0.035254      0.151123
Li	      4.08207      2.01942      4.17166        -0.127548     -0.113044      0.041773
Li	      6.05638      4.04921      0.02362        -0.028248     -0.007728     -0.052724
Li	      8.07719      6.06456      4.22053         0.009324      0.009368      0.008557
Li	      6.06377      8.10122      0.03165        -0.050850      0.075630     -0.040042
Li	      8.08025     10.11965      4.22792         0.004301      0.073155      0.034753
Li	     10.09250      4.04880      0.04177         0.032077     -0.001390     -0.072287
Li	     12.07537      6.06801      4.17905         0.101275     -0.001688     -0.058625
Li	     10.09212      8.10093      0.04976         0.029250      0.070807     -0.070513
Li	     12.07373      2.01717      4.16962         0.094359     -0.104527     -0.026047
Li	      4.08233      4.04612      2.14751        -0.113108     -0.005101      0.035534
Li	      6.06366      6.06158      6.28265        -0.007587      0.011705      0.063343
Li	      4.08419      8.09644      2.15799        -0.105163      0.080779      0.019103
Li	      6.06644     10.11535      6.28747        -0.016138      0.069306      0.054186
Li	      8.07765      4.04491      2.10401        -0.004007     -0.003682      0.010880
Li	     10.09745      6.06179      6.30042         0.019285      0.001581      0.057097
Li	      8.08002      8.09646      2.10963        -0.017747      0.071263     -0.017409
Li	     10.09733     10.11354      6.30633         0.021130      0.078904      0.019458
Li	     12.07573      4.04422      2.14715         0.148197      0.006467     -0.014090
Li	     14.13146      6.06225      6.43512         0.107740      0.002143      0.017477
Li	     12.07428      8.09469      2.15568         0.150986      0.079891     -0.047437
Li	     14.13175     10.11248      6.44171         0.110694      0.070110     -0.012035
Ti	      2.02071      2.02160      2.10769        -0.449315     -0.097637      0.009384
Ti	      4.04704      4.03969      6.30576        -0.358766     -0.138105      0.013910
Ti	      2.02291      6.06948      2.11829        -0.465587      0.002983     -0.074678
Ti	      4.04825      8.08617      6.31953        -0.350247      0.027623     -0.093429
Ti	      6.06743      2.02292      2.11106        -0.057235     -0.185766     -0.084994
Ti	      8.08518      4.03976      6.31127         0.083642     -0.168753      0.119774
Ti	      6.06855      6.06866      2.11683        -0.048555     -0.022725     -0.102674
Ti	      8.08803      8.08768      6.31235         0.055336      0.024171      0.131352
Ti	     10.08886      2.02153      2.10765         0.145014     -0.161731      0.003839
Ti	     12.10057      4.03877      6.30034         0.079341     -0.159529      0.005577
Ti	     10.08761      6.06919      2.11821         0.162413     -0.060139     -0.057781
Ti	     12.09904      8.08759      6.31412         0.129798      0.064031      0.039013
Ti	     12.10766      2.02687      0.00932         0.517805     -0.241015      0.019949
Ti	     14.13592      4.04283      4.21220         0.452835     -0.022675     -0.014333
Ti	     12.10994      6.07473      0.01435         0.588341      0.025614      0.025804
Ti	     14.13587      8.09202      4.21767         0.460847      0.075762     -0.032613
Ti	      4.05546      2.02101      0.01468        -0.110548     -0.184075     -0.083787
Ti	      6.06616      4.04237      4.20869        -0.096748     -0.177023      0.062143
Ti	      4.05760      6.08033      0.02201        -0.216954     -0.026610     -0.120277
Ti	      6.06923      8.09363      4.21570        -0.164456      0.049696      0.049938
Ti	      8.06897      2.02817      0.01093        -0.103097     -0.132916     -0.189363
Ti	     10.08858      4.04147      4.20633         0.014876     -0.184943      0.103096
Ti	      8.06892      6.07222      0.01728        -0.085990      0.023863     -0.232360
Ti	     10.08930      8.09274      4.21498         0.067586      0.057912      0.104176
O	      2.02084      2.02555      0.06542        -0.309004     -0.090541     -0.169254
O	      4.00401      4.04390      4.20721        -0.263845     -0.044083      0.048133
O	      2.02113      6.07612      0.07516        -0.295039     -0.011644     -0.174675
O	      4.00423      8.09282      4.21906        -0.315713      0.041431      0.012769
O	      6.05696      2.02492      0.01073        -0.051998     -0.076509     -0.231881
O	      8.07713      4.04321      4.21249        -0.006756     -0.081590     -0.121180
O	      6.05818      6.07509      0.01659        -0.021072     -0.009539     -0.266350
O	      8.07796      8.09223      4.21761        -0.000311      0.016675     -0.165143
O	     10.09625      2.02579      0.00727         0.157654     -0.104865     -0.264352
O	     12.15157      4.04352      4.20378         0.035796     -0.038475     -0.107979
O	     10.09858      6.07409      0.01718         0.113146      0.025808     -0.312502
O	     12.15482      8.09156      4.21546         0.072056      0.038890     -0.128433
O	      4.00304      2.02180      2.11246        -0.047129     -0.073488      0.112003
O	      6.05972      4.03975      6.30992        -0.063819     -0.074574      0.186416
O	      4.00309      6.06940      2.11993        -0.053908      0.005325      0.097574
O	      6.05879      8.08835      6.31644        -0.049037      0.005773      0.179737
O	      8.07867      2.02070      2.10681         0.003158     -0.132061      0.123627
O	     10.09691      4.03841      6.30647         0.015641     -0.079364      0.218630
O	      8.08014      6.07027      2.11380        -0.009058      0.038392      0.118050
O	     10.09942      8.08750      6.31530         0.022184      0.022099      0.248410
O	     12.15230      2.01973      2.10943         0.274316     -0.071061     -0.030524
O	     14.13448      4.03785      6.25444         0.389184     -0.068960      0.201536
O	     12.15301      6.06968      2.11437         0.295237      0.007736     -0.035614
O	     14.13542      8.08846      6.26037         0.386482      0.002509      0.209134
O	      0.01400      8.09976      0.02622        -0.373665      0.184434     -0.173380
O	      0.01367      4.05112      0.02056        -0.376020     -0.018052     -0.130678
O	      4.02936      8.09930      0.03611        -0.020143      0.213108     -0.172634
O	      6.05781     10.11610      4.22631         0.052773      0.243514      0.084750
O	      4.02787      4.05092      0.01941        -0.005289     -0.040648     -0.113842
O	      6.05643      6.06885      4.21634         0.056596      0.005479      0.150766
O	     12.11650      4.03445      8.39221         0.165641     -0.082953      0.324069
O	     10.10168     10.11579      4.22198        -0.035658      0.231126      0.080263
O	      8.07762      4.05033      0.00970        -0.021141      0.006324     -0.051861
O	     10.10069      6.06751      4.21313        -0.037030      0.020308      0.145145
O	      4.02731      6.06321      6.30350        -0.140462     -0.043317      0.148104
O	      4.02934     10.11383      6.31133        -0.163489      0.280440      0.220020
O	      6.05683      4.04648      2.11026         0.032787     -0.078946     -0.151962
O	      8.07774      6.06640      6.31766         0.041024     -0.070067      0.097464
O	      6.05730      8.09431      2.12032         0.058043      0.255270     -0.086765
O	      8.07824     10.11020      6.32622         0.049335      0.296905      0.165373
O	     10.09979      4.04588      2.10636        -0.033803     -0.078466     -0.203742
O	     12.12779      6.06173      6.30146         0.006838     -0.029172      0.103872
O	     10.10152      8.09404      2.11687        -0.071934      0.253527     -0.172985
O	     12.12969     10.11404      6.30872         0.013249      0.282587      0.148768
