# total energy = -680.90052170 eV
 
CRYSTAL
PRIMVEC
12.298670 -0.000898 0.002372 
0.002117 8.221036 0.016171 
4.100384 4.094673 8.522578 
PRIMCOORD
92 1
Li	      6.18948      8.24632      8.45536        -0.016763     -0.070113     -0.115434
Li	      4.16726      6.19039      4.26492         0.039439      0.001796     -0.056027
Li	      6.18340      4.11723      8.44706        -0.023071      0.026252     -0.119626
Li	      4.16454      2.06022      4.25594         0.027564      0.096219     -0.073078
Li	      6.17872      4.13101      0.02410         0.014266      0.012443      0.033425
Li	      8.24037      6.18707      4.30580         0.006211      0.005443     -0.014626
Li	      6.18415      0.04385      0.01612         0.039558     -0.089322      0.029040
Li	      8.24137      2.10304      4.29715         0.001910     -0.089523     -0.035293
Li	     10.29637      4.13059      0.04261        -0.030431      0.021918      0.089859
Li	     12.31932      6.19060      4.26348        -0.023962     -0.001053      0.023431
Li	     10.29388      0.04355      0.03459        -0.032162     -0.090084      0.074552
Li	     12.31765      2.05793      4.25385        -0.004464      0.105178      0.005725
Li	      4.16479      4.12785      2.19089         0.020225      0.004052     -0.019797
Li	      6.18616      6.18403      6.40957         0.002109      0.011725     -0.076474
Li	      4.16669      8.26000      2.20159         0.011212     -0.089842      0.011287
Li	      6.18898     10.31969      6.41448        -0.009162     -0.092848     -0.048713
Li	      8.24084      4.12662      2.14652        -0.001793      0.011379      0.006602
Li	     10.30143      6.18424      6.42769        -0.021290      0.003087     -0.045946
Li	      8.24325      8.26001      2.15224        -0.000446     -0.083440      0.035588
Li	     10.30130     10.31785      6.43373        -0.017251     -0.079480      0.005538
Li	     12.31968      4.12592      2.19053        -0.064995      0.018888      0.047695
Li	     14.41695      6.18472      6.56512        -0.121446     -0.002351     -0.046270
Li	     12.31820      8.25821      2.19922        -0.054331     -0.092120      0.069952
Li	     14.41723     10.31677      6.57185        -0.112639     -0.075304     -0.000800
Ti	      2.06152      2.06244      2.15027         0.521563      0.097254     -0.040527
Ti	      4.12880      4.12130      6.43314         0.314719      0.075270     -0.155792
Ti	      2.06377      6.19209      2.16108         0.501826      0.019964      0.008083
Ti	      4.13003      8.24952      6.44719         0.336110      0.073958     -0.085398
Ti	      6.19000      2.06379      2.15370         0.025689      0.155212     -0.049485
Ti	      8.24851      4.12137      6.43877        -0.045844      0.134167     -0.242524
Ti	      6.19115      6.19125      2.15959         0.033350      0.054894     -0.022096
Ti	      8.25142      8.25105      6.43987        -0.070363      0.012628     -0.180602
Ti	     10.29268      2.06236      2.15023        -0.135236      0.156419     -0.049413
Ti	     12.34503      4.12036      6.42762        -0.063430      0.133258     -0.140111
Ti	     10.29139      6.19179      2.16100        -0.133214      0.050221     -0.030598
Ti	     12.34347      8.25098      6.44168        -0.092887     -0.033163     -0.228324
Ti	      0.05359      2.06872      0.00714        -0.467977      0.213292      0.177795
Ti	      2.12281      4.12540      4.29492        -0.540821      0.015788      0.045735
Ti	      0.05590      6.19834      0.01227        -0.583321     -0.033368      0.163495
Ti	      2.12276      8.25639      4.30050        -0.527121     -0.078567      0.071923
Ti	      4.13739      2.06184      0.01498         0.098418      0.251587      0.230981
Ti	      6.18870      4.12403      4.29371         0.104279      0.183339      0.001492
Ti	      4.13957      6.20315      0.02245         0.182918     -0.048630      0.270258
Ti	      6.19184      8.25714      4.30086         0.165621     -0.067387      0.039861
Ti	      8.23199      2.06914      0.01116         0.085264      0.054803      0.243514
Ti	     10.29239      4.12311      4.29130         0.022575      0.198823      0.017867
Ti	      8.23193      6.19488      0.01762         0.086191      0.031126      0.313481
Ti	     10.29312      8.25623      4.30012        -0.065245     -0.085414      0.030481
O	      2.06166      2.06647      0.06674         0.337292      0.065217      0.051274
O	      4.08490      4.12560      4.29220         0.356809      0.032198      0.029621
O	      2.06196      6.19887      0.07668         0.351033      0.015262      0.063180
O	      4.08513      8.25630      4.30430         0.403231     -0.048791      0.051232
O	      6.17932      2.06583      0.01094         0.053690      0.069996      0.217270
O	      8.24031      4.12489      4.29759         0.003097      0.071509      0.119940
O	      6.18055      6.19782      0.01693         0.015697      0.008110      0.259162
O	      8.24114      8.25571      4.30281         0.011420     -0.010294      0.162931
O	     10.30021      2.06671      0.00742        -0.167561      0.110602      0.304667
O	     12.39706      4.12521      4.28870        -0.048842      0.028020      0.175309
O	     10.30258      6.19679      0.01752        -0.127777     -0.031656      0.331525
O	     12.40035      8.25501      4.30061        -0.104584     -0.040326      0.170798
O	      4.08390      2.06265      2.15513         0.080190      0.075307     -0.168049
O	      6.18213      4.12136      6.43738         0.073034      0.076287     -0.209400
O	      4.08397      6.19201      2.16276         0.097829     -0.002926     -0.151099
O	      6.18119      8.25175      6.44404         0.063125     -0.015747     -0.211408
O	      8.24187      2.06152      2.14937        -0.009091      0.141903     -0.123041
O	     10.30087      4.11999      6.43387        -0.013512      0.090656     -0.203670
O	      8.24337      6.19290      2.15650        -0.006909     -0.043383     -0.100237
O	     10.30343      8.25088      6.44288        -0.014789     -0.016455     -0.230628
O	     12.39780      2.06052      2.15204        -0.363984      0.075675     -0.058944
O	     14.42002      4.11941      6.38079        -0.426831      0.081444     -0.126755
O	     12.39852      6.19230      2.15709        -0.368056      0.001266     -0.033695
O	     14.42098      8.25186      6.38684        -0.416712     -0.017279     -0.100907
O	      0.01217      0.04236      0.01058         0.354296     -0.154546      0.097711
O	      0.01395      4.13296      0.02097         0.358813     -0.012284      0.055673
O	      4.10864      0.04188      0.02067         0.050028     -0.183259      0.115825
O	      6.17807      2.09944      4.29552        -0.017732     -0.205607     -0.097935
O	      4.10925      4.13276      0.01980         0.045430      0.022082      0.061514
O	      6.17878      6.19144      4.30151        -0.016767     -0.023574     -0.155663
O	      8.26089      0.02128      0.03916        -0.166217      0.091711     -0.326195
O	     10.30364      2.09911      4.29110        -0.009529     -0.211200     -0.108868
O	      8.24079      4.13215      0.00990         0.015187     -0.016802      0.028571
O	     10.30474      6.19009      4.29824        -0.008975     -0.020770     -0.162783
O	      4.10866      6.18569      6.43084         0.184439      0.035231     -0.066090
O	      4.11075     10.31815      6.43883         0.201321     -0.276710     -0.165136
O	      6.17919      4.12823      2.15288        -0.000606      0.070584      0.172984
O	      8.24093      6.18895      6.44529        -0.025127      0.036756     -0.059943
O	      6.17967      8.25783      2.16315        -0.017263     -0.228664      0.106285
O	      8.24143     10.31445      6.45401        -0.026242     -0.256303     -0.155301
O	     10.30382      4.12761      2.14891        -0.003779      0.059668      0.221952
O	     12.37278      6.18418      6.42876        -0.042588      0.041795     -0.024673
O	     10.30559      8.25755      2.15964         0.028367     -0.216373      0.162833
O	     12.37472     10.31836      6.43617        -0.062206     -0.296705     -0.090537
