# total energy = -679.89405903 eV
 
CRYSTAL
PRIMVEC
12.359858 -0.000903 0.002383 
0.002128 8.261937 0.016252 
4.120784 4.115044 8.564979 
PRIMCOORD
92 1
Li	      6.25122      8.32858      8.53970        -0.018429     -0.136876     -0.228474
Li	      4.20883      6.25214      4.30746         0.121275      0.003680     -0.088595
Li	      6.24507      4.15829      8.53131        -0.025858      0.046723     -0.244927
Li	      4.20608      2.08077      4.29839         0.103611      0.204888     -0.127461
Li	      6.24035      4.17222      0.02434         0.038660      0.024096      0.077570
Li	      8.32257      6.24879      4.34875         0.011091      0.007900     -0.026744
Li	      6.24584      0.08538      0.01636         0.079061     -0.167250      0.059917
Li	      8.32358      2.16512      4.34010         0.004717     -0.171406     -0.068720
Li	     10.39908      4.17179      0.04303        -0.081119      0.033980      0.173362
Li	     12.44220      6.25235      4.30601        -0.074601     -0.005444      0.067079
Li	     10.39657      0.08508      0.03502        -0.093625     -0.163592      0.146267
Li	     12.44051      2.07845      4.29628        -0.042002      0.207081      0.020637
Li	      4.20634      4.16903      2.21274         0.079213      0.010177     -0.057624
Li	      6.24785      6.24571      6.47350         0.013734      0.016860     -0.152541
Li	      4.20825      8.34239      2.22355         0.059647     -0.171925     -0.002300
Li	      6.25072     10.42263      6.47847        -0.000884     -0.167006     -0.100121
Li	      8.32304      4.16779      2.16792         0.005185      0.018912      0.008642
Li	     10.40418      6.24592      6.49181        -0.039970      0.004864     -0.100097
Li	      8.32548      8.34241      2.17371         0.011270     -0.154656      0.066178
Li	     10.40406     10.42077      6.49791        -0.036865     -0.158879     -0.004356
Li	     12.44258      4.16707      2.21238        -0.166660      0.022050      0.081990
Li	     14.56075      6.24641      6.63060        -0.268729      0.001001     -0.079911
Li	     12.44108      8.34059      2.22116        -0.151961     -0.185172      0.126674
Li	     14.56105     10.41969      6.63740        -0.258053     -0.150327      0.003988
Ti	      2.08209      2.08301      2.17172         1.118532      0.197860     -0.017666
Ti	      4.16999      4.16241      6.49732         0.729575      0.180540     -0.207164
Ti	      2.08436      6.25386      2.18264         1.073613      0.027655      0.086575
Ti	      4.17124      8.33181      6.51151         0.741339      0.133757     -0.039796
Ti	      6.25174      2.08438      2.17519         0.067965      0.327893     -0.051251
Ti	      8.33079      4.16248      6.50299        -0.109016      0.253044     -0.430873
Ti	      6.25289      6.25301      2.18113         0.076116      0.076890      0.009056
Ti	      8.33373      8.33336      6.50410        -0.132827      0.050225     -0.325009
Ti	     10.39534      2.08293      2.17167        -0.289278      0.326114     -0.081257
Ti	     12.46817      4.16145      6.49174        -0.155443      0.269299     -0.182329
Ti	     10.39406      6.25356      2.18256        -0.301950      0.076320     -0.022967
Ti	     12.46659      8.33327      6.50593        -0.219693     -0.047887     -0.343179
Ti	      0.11561      2.08934      0.00722        -1.022995      0.402340      0.219433
Ti	      2.20548      4.16655      4.33777        -1.134345      0.028557      0.037113
Ti	      0.11795      6.26017      0.01241        -1.248415     -0.060626      0.214274
Ti	      2.20543      8.33875      4.34341        -1.131062     -0.155918      0.076281
Ti	      4.17867      2.08241      0.01513         0.223063      0.454252      0.372748
Ti	      6.25044      4.16517      4.33654         0.223243      0.358930     -0.013409
Ti	      4.18086      6.26503      0.02268         0.383408     -0.054000      0.450800
Ti	      6.25361      8.33951      4.34377         0.341692     -0.142176      0.045802
Ti	      8.31410      2.08978      0.01127         0.187764      0.084253      0.453595
Ti	     10.39506      4.16423      4.33410         0.027076      0.371399     -0.010184
Ti	      8.31404      6.25667      0.01780         0.170608      0.065915      0.590519
Ti	     10.39579      8.33858      4.34302        -0.135715     -0.163420      0.014817
O	      2.08222      2.08708      0.06740         0.704165      0.120067      0.141877
O	      4.12565      4.16675      4.33502         0.747606      0.063388      0.013725
O	      2.08252      6.26070      0.07744         0.738538      0.025198      0.168719
O	      4.12587      8.33866      4.34723         0.843958     -0.096594      0.059680
O	      6.24096      2.08644      0.01106         0.107892      0.142077      0.422452
O	      8.32250      4.16603      4.34046         0.003323      0.145475      0.220595
O	      6.24221      6.25964      0.01709         0.036734      0.018594      0.502714
O	      8.32334      8.33806      4.34573         0.016523     -0.027367      0.300741
O	     10.40295      2.08733      0.00749        -0.324909      0.221707      0.575358
O	     12.52072      4.16635      4.33148        -0.098091      0.058769      0.296909
O	     10.40535      6.25861      0.01770        -0.226410     -0.054092      0.635413
O	     12.52406      8.33736      4.34352        -0.199119     -0.081389      0.306827
O	      4.12464      2.08323      2.17663         0.136671      0.147961     -0.290607
O	      6.24381      4.16247      6.50160         0.122821      0.149700     -0.387155
O	      4.12471      6.25378      2.18433         0.176262     -0.002272     -0.261368
O	      6.24286      8.33406      6.50832         0.100875     -0.029167     -0.391520
O	      8.32408      2.08209      2.17081        -0.013953      0.282670     -0.221010
O	     10.40363      4.16109      6.49805        -0.021129      0.171420     -0.388694
O	      8.32560      6.25468      2.17802        -0.004220     -0.084404     -0.184010
O	     10.40621      8.33318      6.50715        -0.031110     -0.040838     -0.450388
O	     12.52146      2.08107      2.17350        -0.780794      0.145114     -0.065955
O	     14.56385      4.16051      6.44444        -0.903793      0.161309     -0.291644
O	     12.52220      6.25406      2.17860        -0.784932     -0.001087     -0.023050
O	     14.56483      8.33417      6.45055        -0.871319     -0.027373     -0.258985
O	      0.01229      0.08388      0.01077         0.732184     -0.320437      0.251382
O	      0.01409      4.17419      0.02118         0.738890     -0.012173      0.144361
O	      4.14963      0.08341      0.02096         0.076026     -0.362113      0.275752
O	      6.23971      2.16148      4.33845        -0.057857     -0.412765     -0.183879
O	      4.15024      4.17399      0.02000         0.071153      0.041343      0.149737
O	      6.24041      6.25321      4.34442        -0.057176     -0.041008     -0.286290
O	      8.36379      0.04196      0.08217        -0.311717      0.180959     -0.640611
O	     10.40643      2.16115      4.33398         0.008490     -0.418679     -0.201851
O	      8.32299      4.17337      0.00999         0.043740     -0.025579      0.060587
O	     10.40754      6.25183      4.34111         0.009147     -0.035037     -0.304065
O	      4.14965      6.24739      6.49499         0.379181      0.079762     -0.157031
O	      4.15176     10.42107      6.50306         0.413054     -0.564174     -0.385728
O	      6.24082      4.16941      2.17436        -0.016867      0.134846      0.320302
O	      8.32313      6.25068      6.50958        -0.065729      0.081412     -0.121631
O	      6.24131      8.34020      2.18473        -0.050152     -0.439989      0.192413
O	      8.32364     10.41733      6.51839        -0.068483     -0.526444     -0.348102
O	     10.40660      4.16878      2.17035         0.011982      0.125043      0.408616
O	     12.49620      6.24587      6.49288        -0.071222      0.082501     -0.077667
O	     10.40839      8.33992      2.18118         0.084374     -0.422062      0.314113
O	     12.49817     10.42129      6.50038        -0.096573     -0.585167     -0.237395
