# total energy = -678.22702016 eV
 
CRYSTAL
PRIMVEC
12.421045 -0.000907 0.002395 
0.002138 8.302838 0.016332 
4.141184 4.135416 8.607380 
PRIMCOORD
92 1
Li	      2.17208      4.27583      0.01708        -0.004590     -0.200253     -0.334325
Li	      4.25059      6.31420      4.35021         0.194647      0.000675     -0.126597
Li	      2.16588      0.06415      0.00861        -0.009083      0.070279     -0.351633
Li	      4.24783      2.10142      4.34106         0.174487      0.319527     -0.183452
Li	      6.30229      4.21363      0.02458         0.065577      0.041403      0.121026
Li	      8.40516      6.31081      4.39191         0.009188      0.006451     -0.043887
Li	      6.30785      0.12734      0.01661         0.110951     -0.253311      0.088736
Li	      8.40621      2.22772      4.38326         0.007527     -0.250703     -0.100124
Li	     10.50230      4.21320      0.04346        -0.162128      0.046677      0.262899
Li	     12.56570      6.31441      4.34875        -0.127760     -0.010986      0.117899
Li	     10.49978      0.12703      0.03545        -0.178015     -0.232003      0.218828
Li	     12.56399      2.09908      4.33892        -0.080731      0.312885      0.041877
Li	      4.24808      4.21040      2.23471         0.133203      0.016278     -0.098206
Li	      6.30986      6.30771      6.53776         0.018399      0.013785     -0.241723
Li	      4.25002      8.42520      2.24562         0.103591     -0.256249     -0.016923
Li	      6.31276     10.52609      6.54277         0.008759     -0.242079     -0.161350
Li	      8.40565      4.20915      2.18944         0.006407      0.030480      0.009738
Li	     10.50745      6.30792      6.55625        -0.059394      0.004311     -0.155923
Li	      8.40811      8.42522      2.19529         0.019378     -0.229530      0.092016
Li	     10.50733     10.52420      6.56241        -0.055975     -0.235003     -0.012172
Li	     12.56607      4.20843      2.23434        -0.266114      0.029825      0.117397
Li	     14.70528      6.30841      6.69642        -0.431222     -0.000684     -0.113179
Li	     12.56456      8.42337      2.24320        -0.243931     -0.288874      0.186950
Li	     14.70557     10.52311      6.70328        -0.421347     -0.228507      0.002878
Ti	      2.10276      2.10369      2.19328         1.824053      0.298760      0.039424
Ti	      4.21138      4.20372      6.56181         1.227125      0.320303     -0.246888
Ti	      2.10505      6.31594      2.20431         1.741948      0.036743      0.184075
Ti	      4.21264      8.41451      6.57613         1.214073      0.171400      0.017480
Ti	      6.31379      2.10506      2.19678         0.111032      0.505492     -0.052808
Ti	      8.41347      4.20380      6.56754        -0.168819      0.357090     -0.623813
Ti	      6.31496      6.31507      2.20278         0.114981      0.088950      0.042636
Ti	      8.41645      8.41607      6.56866        -0.201178      0.122011     -0.454084
Ti	     10.49852      2.10360      2.19323        -0.449953      0.509018     -0.110297
Ti	     12.59193      4.20276      6.55617        -0.265070      0.414416     -0.185366
Ti	     10.49722      6.31563      2.20422        -0.477363      0.087821     -0.019253
Ti	     12.59032      8.41598      6.57050        -0.355548     -0.037733     -0.443650
Ti	      0.17825      2.11008      0.00731        -1.636849      0.579771      0.232499
Ti	      2.28886      4.20790      4.38084        -1.828598      0.036981     -0.002127
Ti	      0.18061      6.32230      0.01254        -1.982469     -0.079926      0.291568
Ti	      2.28882      8.42151      4.38653        -1.842082     -0.232454      0.052535
Ti	      4.22014      2.10308      0.01528         0.364894      0.658538      0.500348
Ti	      6.31247      4.20651      4.37958         0.350456      0.535223     -0.030365
Ti	      4.22236      6.32721      0.02290         0.583748     -0.062391      0.631064
Ti	      6.31567      8.42228      4.38688         0.523308     -0.225009      0.051334
Ti	      8.39662      2.11052      0.01138         0.298543      0.064311      0.648685
Ti	     10.49823      4.20557      4.37712         0.030401      0.531258     -0.040332
Ti	      8.39657      6.31877      0.01798         0.255761      0.124392      0.864078
Ti	     10.49897      8.42135      4.38612        -0.207596     -0.240417     -0.001344
O	      2.10288      2.10779      0.06807         1.125818      0.165002      0.226234
O	      4.16659      4.20811      4.37805         1.234320      0.085677      0.009540
O	      2.10320      6.32285      0.07822         1.190078      0.035458      0.264307
O	      4.16683      8.42143      4.39038         1.377719     -0.140629      0.069343
O	      6.30291      2.10715      0.01116         0.155037      0.215778      0.617394
O	      8.40510      4.20738      4.38353         0.012709      0.222246      0.308127
O	      6.30417      6.32177      0.01726         0.060603      0.031837      0.738831
O	      8.40597      8.42082      4.38886         0.030303     -0.042922      0.418308
O	     10.50620      2.10805      0.00756        -0.487756      0.330109      0.833255
O	     12.64499      4.20771      4.37447        -0.150577      0.085506      0.408297
O	     10.50863      6.32072      0.01787        -0.328124     -0.074716      0.925598
O	     12.64836      8.42011      4.38663        -0.290242     -0.124493      0.429143
O	      4.16558      2.10390      2.19823         0.207457      0.221208     -0.405281
O	      6.30577      4.20378      6.56613         0.165812      0.215760     -0.553125
O	      4.16564      6.31584      2.20601         0.263667     -0.005554     -0.357356
O	      6.30481      8.41679      6.57292         0.132833     -0.035343     -0.560413
O	      8.40670      2.10275      2.19236        -0.022124      0.425345     -0.305672
O	     10.50689      4.20239      6.56254        -0.023370      0.254631     -0.567627
O	      8.40823      6.31676      2.19964        -0.011775     -0.125202     -0.255185
O	     10.50950      8.41589      6.57173        -0.047374     -0.060697     -0.661614
O	     12.64574      2.10173      2.19508        -1.288037      0.212828     -0.080086
O	     14.70841      4.20180      6.50841        -1.437702      0.241749     -0.455742
O	     12.64648      6.31614      2.20023        -1.285502     -0.003170     -0.017782
O	     14.70939      8.41690      6.51457        -1.373685     -0.040746     -0.421215
O	      0.01243      0.12582      0.01095         1.113514     -0.500704      0.411626
O	      0.01422      4.21561      0.02139         1.127017      0.004224      0.232899
O	      4.19083      0.12534      0.02124         0.097027     -0.535799      0.444379
O	      6.30165      2.22404      4.38159        -0.096913     -0.612841     -0.259824
O	      4.19143      4.21542      0.02020         0.094415      0.047773      0.236605
O	      6.30235      6.31527      4.38754        -0.094990     -0.050931     -0.409016
O	      8.46731      0.06285      0.12559        -0.442117      0.262251     -0.950931
O	     10.50972      2.22370      4.37708         0.021830     -0.621686     -0.273887
O	      8.40561      4.21479      0.01009         0.072834     -0.031138      0.091276
O	     10.51083      6.31389      4.38420         0.026948     -0.041244     -0.436203
O	      4.19083      6.30940      6.55945         0.594280      0.120631     -0.252681
O	      4.19295     10.52451      6.56760         0.646242     -0.862792     -0.609924
O	      6.30277      4.21079      2.19595        -0.032888      0.198765      0.454412
O	      8.40574      6.31273      6.57420        -0.104498      0.126734     -0.172599
O	      6.30327      8.42298      2.20642        -0.086692     -0.648149      0.269842
O	      8.40626     10.52073      6.58309        -0.106991     -0.788368     -0.562790
O	     10.50989      4.21016      2.19188         0.023811      0.196381      0.583744
O	     12.62023      6.30787      6.55733        -0.106319      0.128396     -0.129452
O	     10.51170      8.42270      2.20283         0.137826     -0.624905      0.454022
O	     12.62222     10.52472      6.56489        -0.131046     -0.885201     -0.394921
