# total energy = -672.85038156 eV
 
CRYSTAL
PRIMVEC
12.543420 -0.000916 0.002419 
0.002160 8.384639 0.016493 
4.181984 4.176159 8.692181 
PRIMCOORD
92 1
Li	      2.25629      4.40165      0.10305         0.058331     -0.305618     -0.515031
Li	      4.33476      6.43923      4.43636         0.345725     -0.003619     -0.201781
Li	      2.24998      0.10657      0.09442         0.057474      0.109014     -0.533541
Li	      4.33193      2.14304      4.42701         0.326048      0.579623     -0.308149
Li	      6.42708      4.29706      0.02506         0.116117      0.068004      0.219918
Li	      8.57160      6.43577      4.47887         0.012029      0.008921     -0.073479
Li	      6.43278      0.21246      0.01710         0.160816     -0.427155      0.150497
Li	      8.57269      2.35444      4.47021         0.008934     -0.426998     -0.160450
Li	     10.71026      4.29662      0.04431        -0.417337      0.065949      0.452108
Li	     12.81452      6.43944      4.43486        -0.229449     -0.021409      0.227501
Li	     10.70770      0.21215      0.03631        -0.461113     -0.366626      0.382496
Li	     12.81278      2.14065      4.42484        -0.135289      0.525371      0.093828
Li	      4.33221      4.29378      2.27896         0.237206      0.032899     -0.187499
Li	      6.43481      6.43262      6.66722         0.046094      0.019937     -0.434250
Li	      4.33419      8.59203      2.29009         0.175785     -0.424310     -0.061828
Li	      6.43777     10.73452      6.67233         0.039236     -0.395371     -0.294665
Li	      8.57209      4.29250      2.23280         0.008962      0.047044      0.015793
Li	     10.71552      6.43283      6.68607        -0.101473      0.006170     -0.273615
Li	      8.57460      8.59205      2.23875         0.031378     -0.380556      0.161123
Li	     10.71539     10.73260      6.69235        -0.101139     -0.399557     -0.036393
Li	     12.81491      4.29177      2.27858        -0.447125      0.039705      0.196336
Li	     14.99647      6.43332      6.82902        -0.861624      0.002280     -0.183564
Li	     12.81336      8.59017      2.28762        -0.441358     -0.510787      0.304853
Li	     14.99676     10.73147      6.83601        -0.865200     -0.393098     -0.018891
Ti	      2.14439      2.14535      2.23671         3.711145      0.509606      0.217268
Ti	      4.29477      4.28696      6.69174         2.527832      0.770632     -0.335154
Ti	      2.14673      6.44100      2.24796         3.515677      0.067268      0.424054
Ti	      4.29605      8.58112      6.70635         2.421111      0.127133      0.205847
Ti	      6.43882      2.14674      2.24028         0.198598      0.897221     -0.047844
Ti	      8.58007      4.28703      6.69758        -0.255227      0.597320     -1.032874
Ti	      6.44001      6.44012      2.24640         0.203574      0.076181      0.136611
Ti	      8.58310      8.58273      6.69873        -0.302608      0.286594     -0.652710
Ti	     10.70641      2.14526      2.23666        -0.791143      0.917181     -0.155309
Ti	     12.84126      4.28598      6.68598        -0.527714      0.813782     -0.198711
Ti	     10.70508      6.44069      2.24787        -0.855825      0.060406     -0.005699
Ti	     12.83963      8.58264      6.70061        -0.637352     -0.013444     -0.619313
Ti	      0.30536      2.15185      0.00748        -3.091523      0.974988      0.183960
Ti	      2.45776      4.29120      4.46761        -3.681346      0.038948     -0.144172
Ti	      0.30778      6.44748      0.01281        -3.729997     -0.162079      0.531553
Ti	      2.45772      8.58826      4.47342        -3.736369     -0.380200     -0.075020
Ti	      4.30370      2.14472      0.01558         0.693248      1.078551      0.720259
Ti	      6.43748      4.28981      4.46630         0.626019      0.901481     -0.091043
Ti	      4.30597      6.45250      0.02335         0.974444     -0.056656      1.026294
Ti	      6.44073      8.58905      4.47374         0.884326     -0.409248      0.003530
Ti	      8.56289      2.15232      0.01161         0.521407     -0.018652      1.018535
Ti	     10.70612      4.28885      4.46380         0.038178      0.857124     -0.102893
Ti	      8.56283      6.44390      0.01833         0.422179      0.194562      1.489527
Ti	     10.70687      8.58810      4.47298        -0.343195     -0.401293     -0.067149
O	      2.14453      2.14954      0.06942         2.221746      0.221904      0.370663
O	      4.24910      4.29144      4.46474         2.638231      0.110614     -0.007687
O	      2.14484      6.44805      0.07977         2.390701      0.044036      0.433155
O	      4.24934      8.58818      4.47731         2.862033     -0.225648      0.090987
O	      6.42771      2.14887      0.01139         0.235253      0.369536      0.967100
O	      8.57154      4.29070      4.47034         0.011343      0.378552      0.467257
O	      6.42900      6.44695      0.01760         0.097968      0.041191      1.165963
O	      8.57241      8.58756      4.47577         0.046613     -0.069838      0.657153
O	     10.71424      2.14979      0.00771        -0.818771      0.564741      1.342340
O	     12.89538      4.29103      4.46109        -0.263338      0.129301      0.595484
O	     10.71671      6.44589      0.01823        -0.505582     -0.127426      1.471130
O	     12.89882      8.58684      4.47348        -0.463453     -0.226122      0.652698
O	      4.24807      2.14556      2.24177         0.333457      0.369348     -0.608746
O	      6.43064      4.28703      6.69615         0.237302      0.358041     -0.839032
O	      4.24813      6.44090      2.24970         0.468463     -0.015076     -0.521265
O	      6.42966      8.58345      6.70307         0.187928     -0.046192     -0.876809
O	      8.57317      2.14438      2.23577        -0.032209      0.705095     -0.441592
O	     10.71495      4.28561      6.69249        -0.026883      0.422387     -0.885600
O	      8.57472      6.44183      2.24319        -0.031702     -0.200264     -0.363503
O	     10.71760      8.58254      6.70187        -0.138613     -0.105677     -1.061408
O	     12.89614      2.14335      2.23855        -2.745092      0.334224     -0.094175
O	     14.99965      4.28500      6.63728        -2.804664      0.418514     -0.807614
O	     12.89691      6.44121      2.24380        -2.714945     -0.011529     -0.008690
O	     15.00066      8.58356      6.64357        -2.616988     -0.056404     -0.771236
O	      0.01270      0.21092      0.01133         1.917922     -0.914200      0.722155
O	      0.01451      4.29909      0.02181         1.960187      0.097895      0.403587
O	      4.27384      0.21042      0.02184         0.113059     -0.909727      0.825633
O	      6.42646      2.35068      4.46851        -0.181731     -1.001739     -0.371347
O	      4.27443      4.29889      0.02060         0.142840      0.064977      0.390602
O	      6.42715      6.44033      4.47442        -0.180365     -0.077499     -0.609821
O	      8.67618      0.10524      0.21372        -0.659138      0.370216     -1.573844
O	     10.71786      2.35035      4.46391         0.051843     -1.025592     -0.397126
O	      8.57205      4.29825      0.01029         0.153469      0.001539      0.159495
O	     10.71896      6.43891      4.47101         0.070522     -0.050070     -0.671522
O	      4.27382      6.43434      6.68934         1.133474      0.171401     -0.472634
O	      4.27599     10.73291      6.69765         1.203245     -1.486454     -1.053230
O	      6.42757      4.29418      2.23943        -0.076369      0.304874      0.679093
O	      8.57219      6.43773      6.70438        -0.209121      0.216156     -0.264415
O	      6.42808      8.58977      2.25011        -0.151805     -1.028869      0.402502
O	      8.57272     10.72905      6.71345        -0.184694     -1.353614     -1.056166
O	     10.71800      4.29352      2.23529         0.068060      0.323663      0.875795
O	     12.87014      6.43277      6.68717        -0.171059      0.186731     -0.221723
O	     10.71985      8.58948      2.24645         0.266513     -1.008751      0.698459
O	     12.87216     10.73313      6.69489        -0.184117     -1.441462     -0.742933
