# total energy = -669.06639820 eV
 
CRYSTAL
PRIMVEC
12.604607 -0.000920 0.002431 
0.002170 8.425540 0.016574 
4.202384 4.196531 8.734582 
PRIMCOORD
92 1
Li	      2.29886      4.46516      0.14667         0.103303     -0.349943     -0.581988
Li	      4.37715      6.50220      4.47974         0.417850     -0.007036     -0.241513
Li	      2.29247      0.12808      0.13795         0.103623      0.119422     -0.598513
Li	      4.37430      2.16399      4.47031         0.405910      0.723718     -0.371087
Li	      6.48994      4.33909      0.02531         0.144618      0.082351      0.275628
Li	      8.65543      6.49872      4.52268         0.011179      0.006927     -0.091080
Li	      6.49569      0.25565      0.01735         0.181153     -0.516266      0.180632
Li	      8.65653      2.41857      4.51401         0.009237     -0.516638     -0.192960
Li	     10.81500      4.33864      0.04475        -0.608027      0.071995      0.557953
Li	     12.93984      6.50242      4.47823        -0.274496     -0.027419      0.282136
Li	     10.81244      0.25533      0.03675        -0.666590     -0.429014      0.468699
Li	     12.93808      2.16159      4.46811        -0.156404      0.635924      0.115921
Li	      4.37457      4.33577      2.30125         0.280207      0.037452     -0.238123
Li	      6.49774      6.49552      6.73242         0.059652      0.019634     -0.545473
Li	      4.37657      8.67606      2.31248         0.199281     -0.512407     -0.094140
Li	      6.50072     10.83950      6.73759         0.054636     -0.473639     -0.375642
Li	      8.65593      4.33448      2.25464         0.010306      0.056737      0.025475
Li	     10.82031      6.49574      6.75146        -0.127040      0.007027     -0.340403
Li	      8.65846      8.67607      2.26065         0.037211     -0.462540      0.197092
Li	     10.82018     10.83756      6.75779        -0.132427     -0.491703     -0.059549
Li	     12.94023      4.33375      2.30087        -0.531131      0.043266      0.241590
Li	     15.14312      6.49624      6.89581        -1.148588      0.010082     -0.213116
Li	     12.93867      8.67419      2.31000        -0.534464     -0.636156      0.362847
Li	     15.14343     10.83643      6.90287        -1.157046     -0.485891     -0.032553
Ti	      2.16536      2.16632      2.25858         4.964278      0.613188      0.338700
Ti	      4.33678      4.32889      6.75719         3.395201      1.052486     -0.384910
Ti	      2.16773      6.50399      2.26994         4.703666      0.090547      0.573450
Ti	      4.33807      8.66505      6.77194         3.196027      0.086656      0.335510
Ti	      6.50179      2.16774      2.26219         0.237119      1.142956     -0.060469
Ti	      8.66398      4.32896      6.76308        -0.281396      0.806768     -1.297086
Ti	      6.50300      6.50310      2.26837         0.230541      0.038360      0.150981
Ti	      8.66704      8.66666      6.76424        -0.294139      0.322583     -0.740784
Ti	     10.81112      2.16624      2.25853        -0.968744      1.143249     -0.179559
Ti	     12.96684      4.32790      6.75137        -0.672841      1.051364     -0.252023
Ti	     10.80977      6.50367      2.26985        -1.048278      0.030972      0.015233
Ti	     12.96520      8.66658      6.76615        -0.797626     -0.030055     -0.732835
Ti	      0.36984      2.17289      0.00757        -3.993907      1.169754      0.146256
Ti	      2.54329      4.33317      4.51132        -4.921363      0.031920     -0.230813
Ti	      0.37227      6.51053      0.01295        -4.763610     -0.208624      0.669806
Ti	      2.54323      8.67225      4.51718        -5.010225     -0.455265     -0.163377
Ti	      4.34580      2.16570      0.01574         0.878899      1.319906      0.813876
Ti	      6.50043      4.33176      4.50999         0.777917      1.084769     -0.112713
Ti	      4.34808      6.51561      0.02359         1.156811     -0.073796      1.304534
Ti	      6.50373      8.67305      4.51750         1.056038     -0.507651     -0.027834
Ti	      8.64664      2.17337      0.01172         0.625666     -0.050243      1.216554
Ti	     10.81082      4.33079      4.50745         0.045760      1.027644     -0.113760
Ti	      8.64658      6.50692      0.01851         0.471945      0.229420      1.866162
Ti	     10.81159      8.67209      4.51672        -0.385217     -0.490964     -0.081122
O	      2.16550      2.17055      0.07009         2.973099      0.240991      0.423318
O	      4.29065      4.33341      4.50840         3.655139      0.123767     -0.020272
O	      2.16582      6.51111      0.08054         3.181518      0.040842      0.499011
O	      4.29090      8.67218      4.52111         3.908330     -0.273677      0.103980
O	      6.49057      2.16989      0.01150         0.277112      0.452926      1.130082
O	      8.65537      4.33265      4.51405         0.010587      0.457788      0.538015
O	      6.49188      6.51000      0.01778         0.142488      0.051200      1.361360
O	      8.65626      8.67155      4.51954         0.055968     -0.069104      0.780361
O	     10.81903      2.17081      0.00779        -0.997156      0.694048      1.589690
O	     13.02150      4.33299      4.50472        -0.318456      0.151108      0.679964
O	     10.82153      6.50892      0.01841        -0.595968     -0.162726      1.738286
O	     13.02496      8.67083      4.51724        -0.547322     -0.279136      0.756644
O	      4.28961      2.16655      2.26369         0.405087      0.445480     -0.691926
O	      6.49353      4.32895      6.76163         0.266565      0.426449     -0.955352
O	      4.28967      6.50390      2.27170         0.573902     -0.012885     -0.601084
O	      6.49254      8.66740      6.76863         0.196768     -0.049787     -1.035389
O	      8.65701      2.16536      2.25764        -0.041458      0.847699     -0.502694
O	     10.81973      4.32752      6.75795        -0.030915      0.509979     -1.022682
O	      8.65859      6.50484      2.26513        -0.023989     -0.236030     -0.418968
O	     10.82242      8.66648      6.76741        -0.205486     -0.129228     -1.243383
O	     13.02228      2.16431      2.26044        -3.788779      0.392200     -0.096469
O	     15.14636      4.32692      6.70220        -3.697662      0.518105     -0.985720
O	     13.02304      6.50421      2.26574        -3.739587     -0.014544     -0.009620
O	     15.14737      8.66750      6.70854        -3.410215     -0.060609     -0.954578
O	      0.01283      0.25408      0.01152         2.353153     -1.122401      0.877738
O	      0.01465      4.34114      0.02203         2.419710      0.137620      0.477948
O	      4.31565      0.25358      0.02212         0.111297     -1.144197      1.016495
O	      6.48932      2.41477      4.51230        -0.227263     -1.200646     -0.406914
O	      4.31624      4.34093      0.02080         0.163360      0.092696      0.450513
O	      6.49001      6.50331      4.51818        -0.227118     -0.087478     -0.696578
O	      8.78153      0.12674      0.25841        -0.755513      0.400789     -1.893396
O	     10.82269      2.41443      4.50765         0.064900     -1.224570     -0.441367
O	      8.65589      4.34029      0.01040         0.198137      0.045576      0.185581
O	     10.82379      6.50188      4.51474         0.094160     -0.053699     -0.777545
O	      4.31561      6.49726      6.75476         1.472851      0.189770     -0.590206
O	      4.31781     10.83788      6.76315         1.547979     -1.826584     -1.272741
O	      6.49044      4.33617      2.26133        -0.094393      0.348565      0.767008
O	      8.65602      6.50069      6.76994        -0.278328      0.254223     -0.309958
O	      6.49095      8.67378      2.27212        -0.175907     -1.223044      0.463400
O	      8.65656     10.83398      6.77911        -0.219797     -1.642802     -1.297643
O	     10.82282      4.33551      2.25715         0.088968      0.376998      0.994480
O	     12.99601      6.49568      6.75257        -0.204103      0.192598     -0.272388
O	     10.82469      8.67348      2.26842         0.336202     -1.190731      0.799006
O	     12.99805     10.83810      6.76036        -0.202339     -1.719367     -0.921619
