# total energy = -659.03355361 eV
 
CRYSTAL
PRIMVEC
12.726982 -0.000929 0.002454 
0.002191 8.507341 0.016735 
4.243184 4.237274 8.819384 
PRIMCOORD
92 1
Li	      2.38492      4.59343      0.23516         0.208045     -0.432418     -0.685106
Li	      4.46256      6.62908      4.56715         0.556051     -0.008254     -0.312211
Li	      2.37840      0.17172      0.22627         0.196789      0.138367     -0.681351
Li	      4.45966      2.20621      4.55753         0.582936      1.049552     -0.484855
Li	      6.61657      4.42375      0.02580         0.200205      0.107361      0.402793
Li	      8.82431      6.62552      4.61093         0.008678      0.009905     -0.137721
Li	      6.62246      0.34323      0.01785         0.226402     -0.716518      0.256137
Li	      8.82547      2.54836      4.60226         0.005894     -0.722403     -0.265767
Li	     11.02602      4.42330      0.04562        -1.188791      0.075842      0.787352
Li	     13.19232      6.62930      4.56561        -0.359474     -0.034396      0.390538
Li	     11.02343      0.34291      0.03763        -1.269629     -0.561315      0.660715
Li	     13.19053      2.20376      4.55529        -0.178279      0.875722      0.172961
Li	      4.45993      4.42037      2.34615         0.340592      0.046873     -0.347046
Li	      6.62453      6.62227      6.86378         0.086655      0.045587     -0.792931
Li	      4.46196      8.84534      2.35761         0.205708     -0.692811     -0.157118
Li	      6.62757     11.05100      6.86904         0.094536     -0.638389     -0.558094
Li	      8.82482      4.41905      2.29862         0.019446      0.072725      0.043488
Li	     11.03143      6.62248      6.88319        -0.177434      0.018460     -0.480869
Li	      8.82740      8.84536      2.30476         0.049114     -0.646521      0.275657
Li	     11.03131     11.04903      6.88966        -0.186051     -0.684780     -0.108076
Li	     13.19271      4.41830      2.34575        -0.682417      0.060287      0.310460
Li	     15.43859      6.62300      7.03035        -1.916214      0.026401     -0.281851
Li	     13.19112      8.84343      2.35507        -0.712417     -0.948373      0.455714
Li	     15.43891     11.04787      7.03756        -1.947390     -0.700479     -0.082283
Ti	      2.20762      2.20860      2.30265         8.211491      0.816343      0.686004
Ti	      4.42139      4.41335      6.88903         5.771848      1.848127     -0.239436
Ti	      2.21003      6.63090      2.31423         7.829891      0.143871      0.854697
Ti	      4.42271      8.83412      6.90407         5.366878     -0.029867      0.663216
Ti	      6.62865      2.21004      2.30633         0.288224      1.719839     -0.133516
Ti	      8.83303      4.41343      6.89504        -0.356917      1.309452     -1.789734
Ti	      6.62987      6.62999      2.31263         0.261094     -0.090013      0.119851
Ti	      8.83616      8.83576      6.89622        -0.315429      0.365505     -0.936366
Ti	     11.02206      2.20851      2.30260        -1.209783      1.736125     -0.294816
Ti	     13.21985      4.41234      6.88310        -0.986236      1.722461     -0.301500
Ti	     11.02069      6.63058      2.31414        -1.228159     -0.061247     -0.012231
Ti	     13.21818      8.83567      6.89816        -1.076664     -0.088560     -0.934149
Ti	      0.50061      2.21528      0.00773        -6.351187      1.515546     -0.117301
Ti	      2.71647      4.41770      4.59936        -8.172695     -0.011410     -0.592513
Ti	      0.50310      6.63755      0.01322        -7.324324     -0.303922      0.940883
Ti	      2.71642      8.84145      4.60534        -8.421201     -0.624123     -0.397573
Ti	      4.43059      2.20795      0.01603         1.328184      1.963832      0.964197
Ti	      6.62726      4.41628      4.59798         0.977206      1.493270     -0.184475
Ti	      4.43291      6.64274      0.02405         1.491647     -0.128774      1.965019
Ti	      6.63062      8.84228      4.60564         1.265354     -0.656998      0.000292
Ti	      8.81534      2.21577      0.01194         0.824956     -0.095022      1.494487
Ti	     11.02175      4.41529      4.59540         0.068222      1.390321     -0.203411
Ti	      8.81528      6.63388      0.01887         0.503890      0.248477      2.672737
Ti	     11.02254      8.84129      4.60485        -0.475706     -0.706394      0.036050
O	      2.20775      2.21291      0.07146         5.070418      0.263087      0.554996
O	      4.37438      4.41796      4.59637         6.490731      0.135825     -0.011716
O	      2.20808      6.63815      0.08212         5.408599      0.036980      0.598429
O	      4.37462      8.84138      4.60932         6.877757     -0.385803      0.137711
O	      6.61720      2.21223      0.01172         0.386728      0.631170      1.431115
O	      8.82425      4.41719      4.60213         0.136222      0.626881      0.741990
O	      6.61854      6.63702      0.01812         0.257659      0.065808      1.731898
O	      8.82515      8.84075      4.60773         0.173962     -0.056524      1.008844
O	     11.03013      2.21317      0.00794        -1.378458      0.986420      2.092683
O	     13.27556      4.41754      4.59262        -0.461205      0.196504      0.898776
O	     11.03268      6.63592      0.01877        -0.813343     -0.181185      2.277292
O	     13.27910      8.84000      4.60538        -0.779689     -0.396829      0.957042
O	      4.37331      2.20882      2.30786         0.550905      0.608751     -0.908792
O	      6.62023      4.41342      6.89357         0.320007      0.603363     -1.180638
O	      4.37338      6.63080      2.31603         0.901747     -0.003400     -0.723685
O	      6.61922      8.83652      6.90070         0.214655     -0.060293     -1.331891
O	      8.82593      2.20760      2.30168        -0.156656      1.132263     -0.686153
O	     11.03084      4.41196      6.88981        -0.057560      0.689629     -1.309685
O	      8.82752      6.63176      2.30932        -0.263171     -0.296481     -0.553374
O	     11.03358      8.83558      6.89945        -0.369712     -0.174965     -1.623830
O	     13.27636      2.20654      2.30454        -6.620056      0.517690     -0.107671
O	     15.44188      4.41134      6.83296        -6.119722      0.762965     -1.425131
O	     13.27714      6.63111      2.30995        -6.598636     -0.015763     -0.004775
O	     15.44292      8.83663      6.83945        -5.631746     -0.062534     -1.405114
O	      0.01311      0.34163      0.01192         3.340498     -1.571780      1.164624
O	      0.01494      4.42585      0.02246         3.502085      0.232069      0.612711
O	      4.39987      0.34112      0.02272         0.131976     -1.813809      1.376838
O	      6.61596      2.54449      4.60050        -0.305100     -1.619882     -0.449863
O	      4.40045      4.42563      0.02121         0.218708      0.251607      0.586212
O	      6.61664      6.63020      4.60633        -0.300697     -0.157808     -0.855669
O	      8.99407      0.17035      0.34908        -0.921005      0.396435     -2.529934
O	     11.03388      2.54413      4.59577         0.087712     -1.723368     -0.487716
O	      8.82477      4.42498      0.01060         0.292112      0.158725      0.249592
O	     11.03498      6.62874      4.60283         0.135725      0.009564     -0.969486
O	      4.39982      6.62403      6.88655         2.393932      0.214989     -0.836482
O	      4.40205     11.04935      6.89512         2.461603     -2.655496     -1.702943
O	      6.61707      4.42077      2.30545        -0.135299      0.431780      0.901027
O	      8.82492      6.62753      6.90204        -0.425007      0.280226     -0.389157
O	      6.61760      8.84301      2.31644        -0.225255     -1.652004      0.582427
O	      8.82546     11.04537      6.91137        -0.258173     -2.258137     -1.801077
O	     11.03399      4.42011      2.30119         0.117920      0.357338      1.246505
O	     13.24958      6.62243      6.88433        -0.303830      0.154423     -0.323044
O	     11.03590      8.84271      2.31268         0.447649     -1.529427      1.062995
O	     13.25166     11.04956      6.89226        -0.228534     -2.346267     -1.236827
