# total energy = -644.65237452 eV
 
CRYSTAL
PRIMVEC
12.849357 -0.000938 0.002478 
0.002212 8.589142 0.016896 
4.283984 4.278017 8.904186 
PRIMCOORD
92 1
Li	      2.47219      4.72332      0.32532         0.346304     -0.516690     -0.801769
Li	      4.54879      6.75717      4.65540         0.656366     -0.004815     -0.373288
Li	      2.46555      0.21617      0.31625         0.307863      0.159374     -0.773945
Li	      4.54583      2.24884      4.64560         0.763138      1.432428     -0.617012
Li	      6.74442      4.50923      0.02631         0.255258      0.133645      0.512650
Li	      8.99483      6.75354      4.70002         0.017041      0.023409     -0.169224
Li	      6.75044      0.43244      0.01835         0.273644     -0.927450      0.301126
Li	      8.99602      2.68018      4.69134         0.023760     -0.977748     -0.336160
Li	     11.23908      4.50877      0.04650        -2.181781      0.066922      1.007105
Li	     13.44724      6.75739      4.65384        -0.406999     -0.034434      0.521356
Li	     11.23645      0.43212      0.03852        -2.263613     -0.698068      0.869518
Li	     13.44541      2.24634      4.64332        -0.165357      1.132387      0.214230
Li	      4.54610      4.50579      2.39149         0.416760      0.044850     -0.459113
Li	      6.75253      6.75022      6.99641         0.130268      0.070413     -1.039554
Li	      4.54819      9.01626      2.40316         0.208131     -0.904004     -0.220828
Li	      6.75563     11.26454      7.00178         0.131915     -0.825441     -0.749538
Li	      8.99534      4.50444      2.34305         0.017897      0.079261      0.060818
Li	     11.24460      6.75045      7.01620        -0.227669      0.047650     -0.644965
Li	      8.99798      9.01629      2.34930         0.068888     -0.851897      0.379057
Li	     11.24446     11.26252      7.02279        -0.237134     -0.927658     -0.165859
Li	     13.44763      4.50367      2.39108        -0.804651      0.046189      0.397075
Li	     15.73691      6.75098      7.16621        -3.101866      0.054224     -0.336191
Li	     13.44602      9.01431      2.40058        -0.918787     -1.304950      0.558256
Li	     15.73724     11.26135      7.17355        -3.166974     -0.953357     -0.135122
Ti	      2.25027      2.25127      2.34714        13.586134      1.051694      0.728157
Ti	      4.50682      4.49863      7.02215         9.350874      2.863790     -0.181740
Ti	      2.25273      6.75902      2.35894        12.881424      0.238179      1.105625
Ti	      4.50817      9.00483      7.03748         8.799392     -0.209520      0.909297
Ti	      6.75674      2.25275      2.35090         0.204260      2.352240     -0.625454
Ti	      9.00371      4.49871      7.02828        -0.282944      2.068360     -2.419724
Ti	      6.75799      6.75811      2.35732         0.361947     -0.452127     -0.280378
Ti	      9.00690      9.00649      7.02948        -0.292723      0.308288     -1.235013
Ti	     11.23504      2.25118      2.34710        -1.458116      2.322448     -0.320185
Ti	     13.47530      4.49760      7.01611        -1.296843      2.485345     -0.394038
Ti	     11.23364      6.75870      2.35885        -1.851013     -0.284274      0.027894
Ti	     13.47360      9.00640      7.03145        -1.337151     -0.189078     -1.201244
Ti	      0.63383      2.25808      0.00791       -10.041713      1.905224     -0.086974
Ti	      2.89252      4.50306      4.68826       -13.407777     -0.067779     -0.821967
Ti	      0.63637      6.76580      0.01350       -11.230287     -0.403789      1.320404
Ti	      2.89247      9.01228      4.69435       -13.807477     -0.826978     -0.586403
Ti	      4.51620      2.25062      0.01635         1.593341      2.778137      1.359808
Ti	      6.75532      4.50161      4.68683         1.202239      1.959121     -0.013357
Ti	      4.51858      6.77110      0.02451         1.749890     -0.256745      2.749483
Ti	      6.75874      9.01314      4.69463         1.425059     -0.777924      0.520047
Ti	      8.98569      2.25859      0.01218         0.953579     -0.147331      1.709031
Ti	     11.23474      4.50061      4.68419         0.103031      1.869760     -0.301488
Ti	      8.98562      6.76207      0.01923         0.505867      0.279088      3.640859
Ti	     11.23553      9.01214      4.69383        -0.556634     -0.873137      0.133934
O	      2.25042      2.25567      0.07285         8.727132      0.236589      0.638811
O	      4.45890      4.50333      4.68519        11.450868      0.138162     -0.048596
O	      2.25075      6.76642      0.08370         9.103663      0.021776      0.774797
O	      4.45915      9.01223      4.69839        11.784917     -0.536828      0.138796
O	      6.74508      2.25497      0.01195         0.547550      0.838029      1.749934
O	      8.99476      4.50254      4.69106         0.185653      0.835553      0.866670
O	      6.74643      6.76528      0.01848         0.365028      0.130486      2.102248
O	      8.99568      9.01158      4.69676         0.284481     -0.024081      1.177094
O	     11.24326      2.25593      0.00809        -1.878763      1.322204      2.615711
O	     13.53210      4.50290      4.68136        -0.692703      0.245580      1.030844
O	     11.24585      6.76416      0.01913        -1.003602     -0.261272      2.819687
O	     13.53570      9.01082      4.69437        -0.926317     -0.548192      1.145690
O	      4.45781      2.25150      2.35245         0.685505      0.804473     -0.950975
O	      6.74816      4.49871      7.02678         0.388393      0.802979     -1.383210
O	      4.45788      6.75893      2.36078         0.912330      0.002077     -0.889448
O	      6.74712      9.00726      7.03404         0.211350     -0.036588     -1.628764
O	      8.99647      2.25027      2.34616        -0.092947      1.470450     -0.820988
O	     11.24399      4.49721      7.02294        -0.071424      0.877027     -1.578863
O	      8.99811      6.75991      2.35395         0.099361     -0.357022     -0.567000
O	     11.24679      9.00631      7.03278        -0.562017     -0.194683     -1.880672
O	     13.53290      2.24918      2.34907       -11.636656      0.638619     -0.034590
O	     15.74027      4.49658      6.96500        -9.928543      1.020475     -1.947808
O	     13.53369      6.75925      2.35458       -11.520188     -0.044229      0.041702
O	     15.74133      9.00738      6.97160        -9.192739     -0.009652     -1.958464
O	      0.01338      0.43083      0.01231         4.773552     -1.993435      1.451906
O	      0.01522      4.51136      0.02290         4.994395      0.312348      0.843381
O	      4.48492      0.43031      0.02332         0.085134     -2.474731      1.822921
O	      6.74381      2.67624      4.68956        -0.346271     -2.172224     -0.621634
O	      4.48548      4.51115      0.02161         0.279867      0.289580      0.741022
O	      6.74449      6.75831      4.69535        -0.397769     -0.067270     -1.117594
O	      9.20906      0.21478      0.44145        -1.035200      0.381892     -3.116156
O	     11.24711      2.67589      4.68473         0.077264     -2.154909     -0.469276
O	      8.99530      4.51048      0.01080         0.393835      0.306701      0.381528
O	     11.24821      6.75683      4.69177         0.203184      0.025264     -1.164859
O	      4.48484      6.75203      7.01963         3.756587      0.228927     -1.203430
O	      4.48711     11.26285      7.02835         3.794922     -3.625115     -2.169596
O	      6.74494      4.50620      2.35000        -0.169459      0.408069      1.144594
O	      8.99543      6.75559      7.03540        -0.550122      0.387482     -0.660016
O	      6.74547      9.01389      2.36121        -0.238621     -1.982540      0.881887
O	      8.99600     11.25880      7.04493        -0.295813     -3.073056     -2.374314
O	     11.24721      4.50551      2.34565         0.179472      0.465091      1.414225
O	     13.50560      6.75039      7.01735        -0.383913      0.063757     -0.412085
O	     11.24914      9.01359      2.35737         0.582861     -2.040812      1.179137
O	     13.50772     11.26308      7.02545        -0.240994     -3.014184     -1.699445
