# total energy = -681.24617954 eV
 
CRYSTAL
PRIMVEC
12.237483 -0.000894 0.002360 
0.002107 8.180136 0.016091 
4.079984 4.074301 8.480177 
PRIMCOORD
92 1
Li	      6.12804      8.16448      8.37143         0.001970      0.006818     -0.001735
Li	      4.12589      6.12895      4.22258        -0.050879      0.005249     -0.020360
Li	      6.12202      4.07636      8.36321        -0.007721     -0.005451      0.008012
Li	      4.12320      2.03977      4.21369        -0.050735     -0.007735     -0.015102
Li	      6.11739      4.09001      0.02386        -0.006990      0.002904     -0.010427
Li	      8.15857      6.12566      4.26306         0.008829      0.008855     -0.005661
Li	      6.12487      8.18285      0.03198         0.000459     -0.004934     -0.006489
Li	      8.16166     10.22160      4.27051         0.004084     -0.006296     -0.003587
Li	     10.19418      4.08959      0.04219         0.008505      0.012250      0.004351
Li	     12.19705      6.12916      4.22116         0.039236     -0.001845     -0.019901
Li	     10.19380      8.18255      0.05026         0.009568     -0.013052     -0.001189
Li	     12.19539      2.03750      4.21163         0.045429      0.001867     -0.013857
Li	      4.12345      4.08688      2.16915        -0.044894     -0.001437      0.009803
Li	      6.12475      6.12266      6.34595        -0.002439      0.013304     -0.003047
Li	      4.12534      8.17802      2.17973        -0.045499     -0.006292      0.015448
Li	      6.12756     10.21727      6.35082        -0.011296     -0.014838      0.006826
Li	      8.15904      4.08566      2.12521        -0.002237      0.004338      0.007599
Li	     10.19918      6.12286      6.36390        -0.000951      0.003529      0.005992
Li	      8.16143      8.17804      2.13088        -0.009428     -0.005540      0.008520
Li	     10.19906     10.21544      6.36988         0.002864     -0.000234      0.013310
Li	     12.19741      4.08497      2.16879         0.039334      0.011601      0.017166
Li	     14.27385      6.12333      6.49996        -0.002323      0.004324     -0.010856
Li	     12.19594      8.17625      2.17739         0.047366     -0.004921      0.010361
Li	     14.27414     10.21437      6.50662         0.005150     -0.000798     -0.001829
Ti	      2.04107      2.04197      2.12893         0.007278     -0.001262     -0.031250
Ti	      4.08783      4.08039      6.36929        -0.043201     -0.015668     -0.086291
Ti	      2.04329      6.13063      2.13963        -0.005331      0.010081     -0.051883
Ti	      4.08904      8.16764      6.38320        -0.023901      0.024603     -0.111020
Ti	      6.12856      2.04330      2.13233        -0.016158     -0.016349     -0.065980
Ti	      8.16664      4.08047      6.37486         0.018502     -0.005520     -0.059634
Ti	      6.12969      6.12980      2.13816        -0.009654      0.020659     -0.063191
Ti	      8.16952      8.16916      6.37595        -0.010613      0.004185     -0.029216
Ti	     10.19052      2.04189      2.12888         0.008442     -0.004558     -0.023517
Ti	     12.22250      4.07946      6.36382         0.013977     -0.009210     -0.075696
Ti	     10.18925      6.13034      2.13955         0.022124      0.001215     -0.048020
Ti	     12.22094      8.16908      6.37774         0.025078      0.003749     -0.102104
Ti	     12.22966      2.04729      0.00942         0.044178     -0.003545      0.108399
Ti	     14.27835      4.08357      4.25464        -0.020951     -0.001379      0.028123
Ti	     12.23195      6.13593      0.01450         0.030682     -0.005626      0.116675
Ti	     14.27830      8.17356      4.26016        -0.003638     -0.002489      0.037594
Ti	      4.09633      2.04137      0.01483        -0.013047      0.039555      0.077519
Ti	      6.12728      4.08310      4.25109        -0.001836      0.009041      0.027901
Ti	      4.09849      6.14159      0.02223        -0.020748     -0.040444      0.082832
Ti	      6.13038      8.17518      4.25817        -0.002920     -0.007476      0.046008
Ti	      8.15028      2.04860      0.01105        -0.010571     -0.020564      0.027604
Ti	     10.19024      4.08218      4.24871         0.019512      0.014547      0.057949
Ti	      8.15023      6.13340      0.01745         0.003115      0.017072      0.039986
Ti	     10.19095      8.17428      4.25744         0.002915     -0.013054      0.064779
O	      2.04119      2.04596      0.06607         0.007214     -0.003322     -0.053156
O	      4.04435      4.08465      4.24960         0.028207     -0.004556      0.044105
O	      2.04149      6.13734      0.07592         0.012868      0.003419     -0.054999
O	      4.04458      8.17436      4.26158         0.021088     -0.001546      0.037067
O	      6.11798      2.04533      0.01084         0.003749     -0.000921      0.003353
O	      8.15851      4.08394      4.25493        -0.001511     -0.006192      0.007313
O	      6.11921      6.13630      0.01676        -0.000198      0.000812      0.003365
O	      8.15935      8.17376      4.26010         0.005762      0.002689      0.006132
O	     10.19797      2.04620      0.00734        -0.008404      0.003179      0.027266
O	     12.27401      4.08426      4.24613        -0.008275     -0.004962      0.040373
O	     10.20033      6.13529      0.01735        -0.016643     -0.003576      0.016868
O	     12.27728      8.17308      4.25793        -0.020530      0.002026      0.027232
O	      4.04337      2.04218      2.13375         0.016151      0.000518     -0.033640
O	      6.12077      4.08046      6.37349         0.007091     -0.000257     -0.020002
O	      4.04342      6.13054      2.14129         0.021134      0.002326     -0.028872
O	      6.11984      8.16985      6.38008         0.010342     -0.004915     -0.020553
O	      8.16006      2.04106      2.12804        -0.002898      0.005322     -0.005461
O	     10.19864      4.07910      6.37001        -0.002234      0.005508     -0.000882
O	      8.16155      6.13143      2.13510        -0.007164     -0.002123      0.001053
O	     10.20116      8.16898      6.37893         0.002784      0.003976      0.001019
O	     12.27474      2.04007      2.13068        -0.025026      0.001744     -0.047781
O	     14.27689      4.07853      6.31745        -0.004961      0.007348      0.041286
O	     12.27547      6.13084      2.13568        -0.019083      0.005100     -0.035730
O	     14.27785      8.16995      6.32344        -0.006360     -0.007745      0.060652
O	      0.01415      8.18138      0.02649        -0.012827      0.003271     -0.046654
O	      0.01381      4.09194      0.02077        -0.015212     -0.007585     -0.039030
O	      4.06996      8.18091      0.03648         0.023292      0.005982     -0.034751
O	      6.11885     10.21803      4.26890         0.020500      0.012136     -0.008719
O	      4.06846      4.09175      0.01961         0.024285     -0.004215     -0.024291
O	      6.11745      6.12999      4.25882         0.020348     -0.010923     -0.008831
O	     12.23859      4.07510      8.47676        -0.008281      0.003090     -0.005409
O	     10.20347     10.21771      4.26452        -0.024489      0.006052     -0.019012
O	      8.15900      4.09114      0.00980        -0.006557     -0.003874     -0.009278
O	     10.20246      6.12864      4.25557        -0.025710     -0.004015     -0.013763
O	      4.06788      6.12429      6.36701         0.016013     -0.003613      0.036974
O	      4.06994     10.21574      6.37492         0.011386      0.002765      0.042606
O	      6.11786      4.08725      2.13152         0.016607     -0.000968      0.021378
O	      8.15913      6.12752      6.38132         0.010326     -0.019719      0.014828
O	      6.11833      8.17587      2.14168         0.021690      0.006181      0.017957
O	      8.15963     10.21206      6.38995         0.013509      0.016239      0.010410
O	     10.20155      4.08663      2.12758        -0.020187     -0.007975      0.020017
O	     12.24998      6.12280      6.36495        -0.018151      0.006185      0.035073
O	     10.20330      8.17558      2.13820        -0.023464      0.009606      0.000353
O	     12.25190     10.21595      6.37229        -0.026815     -0.011697      0.033219
