# total energy = -692.11247154 eV
 
CRYSTAL
PRIMVEC
12.246984 -0.001903 -0.000198 
0.001437 8.177282 0.016711 
4.081041 4.073222 8.519357 
PRIMCOORD
93 1
Li	      6.09238      8.16037      8.51535         0.043173      0.006551      0.004569
Li	      4.08401      6.12722      4.41248        -0.003889     -0.001915     -0.046489
Li	      6.09095      4.08013      8.50766         0.046033     -0.004974      0.005129
Li	      4.08297     10.21562      4.35262         0.002723      0.002682      0.020431
Li	     10.23485      8.15997      8.51765        -0.040167      0.005485     -0.002868
Li	      8.17617      6.12707      4.24734        -0.007425     -0.002477     -0.009767
Li	     10.23417      4.07921      8.50894        -0.038826     -0.008121     -0.000909
Li	      8.19651      2.03761      4.25072        -0.016744      0.001901      0.001624
Li	     14.28831      8.16225      8.51557        -0.003467      0.002863     -0.008286
Li	     12.23056      6.12575      4.29302         0.011909      0.001433     -0.015504
Li	     14.28740      4.07576      8.50723        -0.002716     -0.004502     -0.006699
Li	     12.21310     10.21464      4.30445         0.014762      0.001358     -0.008721
Li	      4.08382      4.05290      2.24238         0.001243      0.020215     -0.006645
Li	      6.12364      6.12351      6.41932         0.019722     -0.000587      0.003612
Li	      4.08407      8.20866      2.25126         0.001347     -0.022143     -0.005997
Li	      6.12789     10.21133      6.42406         0.024006      0.002764      0.006947
Li	      8.17377      4.08274      2.13044        -0.005985      0.002423     -0.005175
Li	     10.20490      6.12246      6.40533        -0.014760      0.001402     -0.004772
Li	      8.17463      8.17867      2.13878        -0.009744     -0.000803     -0.004552
Li	     10.20208     10.21082      6.39929        -0.020143      0.002221     -0.004175
Li	     12.23495      4.08187      2.14097         0.006229      0.002130     -0.001769
Li	     14.28487      6.12175      6.38111        -0.003266     -0.000435      0.003977
Li	     12.23558      8.17780      2.14928         0.010526     -0.000778     -0.001643
Li	     14.28661     10.21017      6.40353        -0.002637      0.003783      0.007017
Ti	      2.00213      2.04280      2.19408        -0.016024     -0.007325     -0.064166
Ti	      4.09061      4.07669      6.40571        -0.015804     -0.021172     -0.068973
Ti	      1.98615      6.13081      2.18196         0.010827      0.009008     -0.046070
Ti	      4.09122      8.16961      6.41312        -0.020299      0.027316     -0.069476
Ti	      6.15489      2.04211      2.19725         0.013157     -0.001054     -0.060255
Ti	      8.16098      4.08768      6.33205         0.005032     -0.013636      0.081503
Ti	      6.17390      6.12995      2.18026        -0.034559      0.007817     -0.066761
Ti	      8.16202      8.15759      6.34085         0.010237      0.015978      0.085251
Ti	     10.20920      2.04148      2.09978        -0.001691     -0.002202     -0.052796
Ti	     12.23808      4.07717      6.39761         0.011868      0.018423     -0.091601
Ti	     10.21006      6.13056      2.09679         0.005439     -0.002115     -0.032383
Ti	     12.23862      8.16739      6.40506         0.019390     -0.012234     -0.089648
Ti	     12.21292      2.04578      0.00870        -0.025979      0.000412      0.062492
Ti	     14.28424      4.05019      4.25648         0.015529     -0.008173      0.081815
Ti	     12.22136      6.13377      0.01575        -0.016647      0.007630      0.034088
Ti	     14.28478      8.20159      4.26698         0.013185     -0.008606      0.063275
Ti	      8.16424      6.11993      8.49448        -0.001150     -0.001884      0.063590
Ti	      6.12970      4.04743      4.26627        -0.028674     -0.011948      0.052707
Ti	      8.16564     10.20923      8.47400        -0.010601     -0.002002      0.037227
Ti	      6.13029      8.20625      4.27494        -0.029722      0.019054      0.043402
Ti	     12.28108      6.11955      8.52221         0.040186     -0.001472      0.037819
Ti	     10.19878      4.08459      4.26200         0.004053      0.002371      0.044650
Ti	     12.27400     10.20752      8.52223         0.023948      0.002088      0.048041
Ti	     10.19962      8.16868      4.27057         0.010496     -0.011793      0.039171
O	      2.09367      2.04761      0.06717         0.035123     -0.000818      0.017007
O	      4.07632      4.07317      4.27519         0.023677     -0.017747      0.003633
O	      2.10591      6.13602      0.08032         0.032030     -0.000207      0.014289
O	      4.07762      8.18061      4.28236         0.019176      0.022120      0.015611
O	      6.07124      2.04643      0.06814        -0.042352      0.003674      0.010919
O	      8.16339      4.08170      4.22916         0.013253      0.015104     -0.020916
O	      6.06263      6.13481      0.07915        -0.016178      0.004572      0.009201
O	      8.16452      8.17056      4.23723         0.005083     -0.008094     -0.015960
O	     14.28681      6.11912      8.49407        -0.009146      0.001334      0.011040
O	     12.25051      4.08210      4.27881        -0.028817      0.000323     -0.017455
O	     14.28717     10.20770      8.50127        -0.016003     -0.001966     -0.003434
O	     12.25049      8.16938      4.28637        -0.023820     -0.002152     -0.014045
O	      4.08206      2.04270      2.03055        -0.000324      0.001990      0.007526
O	      6.11963      4.08705      6.39589        -0.010665     -0.005667     -0.052772
O	      6.12080      8.15962      6.40422        -0.011853      0.002957     -0.052327
O	      8.14479      2.04169      2.12655        -0.020627      0.000327      0.021423
O	     10.20721      4.08131      6.38095         0.007430     -0.003984     -0.029816
O	      8.16277      6.13109      2.11096        -0.023887     -0.005534      0.025280
O	     10.20788      8.16448      6.38945         0.000425     -0.000809     -0.029303
O	     12.26177      2.04176      2.13921         0.032204     -0.007091      0.011837
O	     14.28695      4.08372      6.37863         0.003260     -0.003801      0.014155
O	     12.24733      6.13004      2.12880         0.024477     -0.002545      0.013235
O	     14.28745      8.16097      6.38863         0.010944     -0.001833      0.004009
O	     12.24629      8.17614      0.02148        -0.001713      0.011144     -0.011737
O	     14.29226     10.21375      4.30800         0.009882      0.002803     -0.039442
O	     12.24619      4.09282      0.01276        -0.005202     -0.018542     -0.009010
O	      2.07124      6.12751      4.22425        -0.048253      0.001890     -0.009507
O	      6.12500     10.21563      4.31329        -0.021618     -0.006689     -0.039657
O	      6.09396      6.12687      4.21348         0.046274      0.002298     -0.006338
O	     12.24673      4.07595      8.51831         0.006168     -0.029908     -0.016392
O	     10.20005      2.03817      4.24064         0.006706     -0.002367      0.004229
O	     12.24800      8.16230      8.52712        -0.000184      0.028014     -0.018225
O	     10.19919      6.12610      4.24088         0.004254      0.003030      0.015932
O	      2.05695      4.11009      2.15994        -0.046740      0.009543      0.021320
O	      4.09358      6.12328      6.40980         0.001090     -0.004853      0.054043
O	      2.05704      8.15291      2.16757        -0.043018     -0.001824      0.037081
O	      4.09576     10.21208      6.42234        -0.002892     -0.007903      0.014578
O	      6.09859      4.11272      2.15685         0.051239      0.014759      0.037725
O	      8.16149      6.12221      6.41989        -0.000991      0.002485     -0.059502
O	      6.09950      8.14909      2.16540         0.049804     -0.020330      0.042705
O	      8.16695     10.21124      6.42096        -0.008338     -0.000009     -0.043628
O	     10.21171      4.08720      2.12722        -0.004058     -0.008716      0.000299
O	     12.23467      6.12228      6.40659         0.004434      0.000572      0.009585
O	     10.21236      8.17313      2.13524        -0.003068      0.020307     -0.000371
O	     12.23121     10.21106      6.41304         0.008713     -0.000815      0.020940
