# total energy = -658.89346008 eV
 
CRYSTAL
PRIMVEC
11.711255 -0.002031 0.005567 
0.001235 7.815148 0.015609 
3.906438 3.892394 8.117405 
PRIMCOORD
93 1
Li	      5.60996      7.45025      7.74657        -0.239609      0.200985      0.575333
Li	      3.78364      5.61791      3.86647        -0.649283     -0.182422      0.175435
Li	      5.60389      3.71850      7.75300         0.459833     -0.353062      0.847685
Li	      3.78359      9.29774      3.87383        -0.568478      1.022141      0.402505
Li	      5.58496      3.73237      0.02873        -0.964382     -0.493459     -0.201768
Li	      7.45456      5.59539      3.89401         0.026124     -0.060159     -0.073201
Li	      5.57681      7.46397      0.03695         0.037122      0.627577     -0.027001
Li	      7.45544      9.31924      3.90196         0.052668      0.975547      0.096800
Li	      9.31276      3.73168      0.03941         0.359259     -0.245981     -0.685018
Li	     11.14231      5.61743      3.90454         1.212975     -0.236202     -0.388792
Li	      9.32932      7.46376      0.05112        -0.053933      0.404284     -0.532968
Li	     11.14356      9.29487      3.91300         0.957742      0.942659     -0.398858
Li	      3.73888      3.72888      1.92747        -0.364701     -0.124147      0.200571
Li	      5.60240      5.58711      5.82103         0.212004     -0.033609      0.328410
Li	      3.72736      7.45960      1.96219        -0.143824      0.719281     -0.379715
Li	      5.60193      9.32029      5.82902         0.030448      0.821284      0.080865
Li	      7.45345      3.72845      1.91455         0.095853     -0.191019     -0.215181
Li	      9.31819      5.57820      5.81891        -0.192594     -0.017494      0.061627
Li	      7.44873      7.45993      1.95016         0.098584      0.583659     -0.783632
Li	      9.32002      9.32816      5.82617        -0.296573      0.943195     -0.299012
Li	     11.18330      3.72717      1.86582         1.033319     -0.401137      0.159889
Li	     13.04765      5.58767      5.91990         1.036557     -0.014642      0.266989
Li	     11.19583      7.45951      1.96589         0.782661      0.840817     -0.066676
Li	     13.04869      9.31666      5.92494         1.307870      0.834355      0.107023
Ti	      1.85034      1.86073      1.92645        -2.935737     -2.795499     -0.314124
Ti	      3.75871      3.72194      5.84827        -3.348015     -2.948044      3.188225
Ti	      1.85004      5.59706      1.93348        -2.700711     -0.346264     -0.681775
Ti	      3.76303      7.45301      5.86078        -3.527421      1.368808      3.016642
Ti	      5.58683      1.86440      1.95997         0.228676     -2.302210      0.791531
Ti	      7.45780      3.72128      5.83189         0.264699     -2.591219      1.950619
Ti	      5.58794      5.59203      1.96697         0.521550     -0.255623      0.536309
Ti	      7.46357      7.45334      5.81050        -0.454320      0.662438      0.062627
Ti	      9.32973      1.83550      1.95473         1.165240     -2.603835     -1.589738
Ti	     11.16989      3.72086      5.83810         2.225332     -2.734043      0.833671
Ti	      9.33048      5.61958      1.96067        -0.123614      0.273334     -1.848517
Ti	     11.14723      7.45210      5.86267         2.237553      0.001254     -0.520487
Ti	      3.74003      5.57908      7.75543        -3.241615      0.111343      4.059305
Ti	      1.94806      3.72652      3.85208        -4.019332     -0.558936      3.121416
Ti	      0.00926      5.60464      0.01209        -6.139051     -0.293600     -1.141574
Ti	      1.86762      7.45807      3.86479        -3.426645      0.495845      1.381586
Ti	      3.72066      1.86340      0.01447        -2.993595     -5.999009     -1.281254
Ti	      5.61837      3.72529      3.89051        -1.017417     -2.707716      1.072024
Ti	      3.72105      5.60176      0.02086        -3.415364     -0.484937     -3.272705
Ti	      5.63035      7.45800      3.89657        -1.302526      0.436521      0.089153
Ti	     11.18052      5.55724      7.74632         5.521691     -2.119603      2.500398
Ti	      9.25862      3.72603      3.85915         2.578653     -0.847922      0.637366
Ti	     11.18227      9.34161      7.75316         6.298714      2.956536      1.303362
Ti	      9.29687      7.45693      3.88217         1.588424      1.831146     -1.034399
O	      5.59639      5.58525      7.74953         0.394992     -0.036566      1.822487
O	      3.71379      3.72601      3.92974         0.386809     -0.511457     -1.861217
O	      5.59770      9.31474      7.75669         3.098018      1.148077      1.467956
O	      3.69112      7.45748      3.93746        -0.437516      0.131864     -1.822171
O	      5.59435      1.85971      0.02720        -2.435606     -1.029452     -1.903006
O	      7.44953      3.72593      3.90434        -0.052483     -0.493460     -1.453877
O	      5.59455      5.60433      0.03493        -2.478142     -0.277172     -2.260868
O	      7.46437      7.45739      3.86904         0.421081      0.432692     -1.959546
O	      9.31521      1.86317      0.01418         0.008570     -1.252662     -2.028777
O	      9.31576      5.60053      0.01988        -0.578543     -0.713829     -1.847899
O	     11.23034      7.45677      3.93375         1.678691      0.452254     -1.824659
O	      3.73144      1.86824      1.94769        -1.078058     -0.789681      1.680216
O	      5.59150      3.72149      5.83485        -0.102946     -1.116748      2.637252
O	      3.73236      5.58846      1.95417        -0.897795     -0.222895      1.075396
O	      5.58518      7.45278      5.83240         0.039935     -0.042727      2.216772
O	      7.45876      1.86881      1.93106         0.127959     -1.021562     -0.348979
O	      9.34018      3.72134      5.80117        -0.150186     -0.882648      2.750846
O	      7.45867      5.58713      1.93766         0.046200     -0.520898     -0.319103
O	      9.33425      7.45304      5.82983        -0.318337      0.250825      2.128659
O	     11.17315      1.85863      1.95312         2.904143     -1.069486     -0.472436
O	     13.03408      3.72144      5.72778         2.704013     -0.625335      0.188662
O	     11.17443      5.59580      1.96154         3.811792     -0.240427     -0.141119
O	     13.05127      7.45246      5.74137         3.094799      0.050561      0.380240
O	     11.18390      7.46263      0.02547         2.444286      1.298780     -1.999812
O	     11.17918      3.73181      0.01551         2.373051     -0.778087     -2.149061
O	      3.72400      7.46465      0.02657        -0.708922      1.943347     -1.274524
O	      5.60617      9.32003      3.90529         0.096647      2.932125      0.876148
O	      7.45267      7.44921      7.75761         1.052868      4.434924      2.397183
O	      5.60491      5.59474      3.89687         0.085082     -0.095203      1.887866
O	      7.46330      7.46364      0.03561        -1.119716      0.855078     -2.212879
O	      9.31705      1.87770      3.87410         0.133598     -3.717438      1.578217
O	     11.19617      7.44924      7.74636         1.214818      1.110121      2.963820
O	      9.31693      5.57374      3.88111         0.000054      1.038516      2.119461
O	      1.83823      3.72841      2.00704        -1.133624     -0.578705     -3.540831
O	      3.72452      5.58703      5.82778        -1.214928     -0.486788     -1.477793
O	      1.86347      7.46017      1.99119        -1.325022      2.820977     -1.933931
O	      3.72509      9.32050      5.83580        -1.006808      2.721942      0.913279
O	      5.58766      3.72837      1.96299        -0.071268     -1.018532     -3.057338
O	      7.46585      5.59088      5.82992         0.502837     -0.548376      0.851403
O	      5.58422      7.45976      1.97329        -0.103151      3.185017     -1.621974
O	      7.46590      9.31578      5.83640         0.612846      3.035107      0.969949
O	      9.35012      3.72779      1.98913        -0.300496     -1.028866     -2.389181
O	     11.18490      5.60340      5.83269         0.015907     -1.426801     -1.339546
O	      9.33352      7.45930      1.94761        -0.045716      3.659016     -1.165434
O	     11.18530      9.30195      5.83913         0.095457      3.913356     -0.610819
