# total energy = -666.51246511 eV
 
CRYSTAL
PRIMVEC
11.772570 -0.002041 0.005596 
0.001241 7.856065 0.015691 
3.926890 3.912773 8.159904 
PRIMCOORD
93 1
Li	      5.66886      7.52848      7.82790        -0.211564      0.177214      0.501942
Li	      3.82335      5.67689      3.90706        -0.557704     -0.163484      0.155819
Li	      5.66272      3.75754      7.83439         0.399587     -0.297922      0.750336
Li	      3.82331      9.39536      3.91450        -0.478583      0.888613      0.367500
Li	      5.64359      3.77155      0.02904        -0.801792     -0.430607     -0.211915
Li	      7.53283      5.65413      3.93490         0.019155     -0.058122     -0.054920
Li	      5.63536      7.54233      0.03734         0.003957      0.543319     -0.017863
Li	      7.53372      9.41708      3.94293         0.034405      0.855619      0.103100
Li	      9.41053      3.77085      0.03982         0.331490     -0.222432     -0.595971
Li	     11.25928      5.67640      3.94552         1.061676     -0.194500     -0.340274
Li	      9.42727      7.54212      0.05166        -0.045182      0.338584     -0.452860
Li	     11.26054      9.39245      3.95408         0.857347      0.822555     -0.345674
Li	      3.77815      3.76804      1.94771        -0.326232     -0.113120      0.165941
Li	      5.66123      5.64576      5.88214         0.192168     -0.037655      0.293916
Li	      3.76649      7.53792      1.98279        -0.129486      0.623323     -0.346722
Li	      5.66074      9.41814      5.89022         0.031995      0.710824      0.068223
Li	      7.53170      3.76760      1.93466         0.081069     -0.176371     -0.177133
Li	      9.41603      5.63677      5.88000        -0.161312     -0.012453      0.050862
Li	      7.52693      7.53825      1.97064         0.088481      0.500574     -0.688673
Li	      9.41786      9.42609      5.88733        -0.253911      0.820124     -0.269662
Li	     11.30071      3.76630      1.88541         0.910861     -0.363542      0.147081
Li	     13.18463      5.64633      5.98204         0.897553     -0.010570      0.262696
Li	     11.31336      7.53783      1.98653         0.694918      0.746575     -0.043466
Li	     13.18568      9.41448      5.98714         1.147140      0.724983      0.126333
Ti	      1.86977      1.88026      1.94668        -2.523458     -2.381861     -0.252176
Ti	      3.79816      3.76101      5.90967        -2.870559     -2.453455      2.718447
Ti	      1.86947      5.65582      1.95378        -2.319619     -0.260151     -0.636697
Ti	      3.80254      7.53126      5.92231        -3.043351      1.113331      2.576139
Ti	      5.64549      1.88397      1.98054         0.151450     -1.914357      0.650851
Ti	      7.53609      3.76035      5.89311         0.242371     -2.188607      1.634618
Ti	      5.64660      5.65074      1.98762         0.407116     -0.259324      0.517045
Ti	      7.54192      7.53159      5.87150        -0.408738      0.560284      0.010475
Ti	      9.42769      1.85477      1.97525         1.023981     -2.252603     -1.263557
Ti	     11.28716      3.75992      5.89938         1.930946     -2.257848      0.754195
Ti	      9.42844      5.67858      1.98125        -0.136189      0.261085     -1.491090
Ti	     11.26426      7.53034      5.92422         1.939874     -0.022262     -0.521225
Ti	      3.77929      5.63766      7.83685        -2.755280      0.111474      3.514280
Ti	      1.96851      3.76565      3.89252        -3.407105     -0.509360      2.646834
Ti	      0.00936      5.66349      0.01222        -5.165932     -0.302509     -1.180429
Ti	      1.88724      7.53636      3.90537        -2.945020      0.421108      1.154891
Ti	      3.75973      1.88296      0.01463        -2.597486     -5.092209     -1.192859
Ti	      5.67736      3.76440      3.93136        -0.848163     -2.293779      0.938977
Ti	      3.76011      5.66057      0.02108        -2.980300     -0.332863     -2.848310
Ti	      5.68945      7.53631      3.93748        -1.118911      0.363092      0.126318
Ti	     11.29790      5.61559      7.82765         4.575115     -1.730380      2.246210
Ti	      9.35583      3.76515      3.89967         2.192490     -0.758676      0.599482
Ti	     11.29967      9.43968      7.83455         5.246194      2.559128      1.228714
Ti	      9.39447      7.53522      3.92294         1.403138      1.549480     -0.902972
O	      5.65515      5.64389      7.83090         0.193664     -0.020439      1.584068
O	      3.75278      3.76514      3.97100         0.267512     -0.428171     -1.576647
O	      5.65647      9.41254      7.83812         2.435696      1.090294      1.453817
O	      3.72987      7.53577      3.97879        -0.454544      0.119019     -1.554237
O	      5.65308      1.87923      0.02749        -2.002238     -0.952701     -1.821635
O	      7.52773      3.76504      3.94533        -0.082859     -0.408486     -1.269601
O	      5.65329      5.66317      0.03530        -2.056502     -0.290198     -2.092152
O	      7.54274      7.53568      3.90966         0.379869      0.368067     -1.659740
O	      9.41301      1.88272      0.01433         0.076432     -1.090042     -1.741187
O	      9.41356      5.65932      0.02008        -0.411374     -0.617560     -1.528227
O	     11.34824      7.53505      3.97505         1.448008      0.382207     -1.526679
O	      3.77062      1.88785      1.96814        -0.924884     -0.665143      1.410390
O	      5.65020      3.76056      5.89612        -0.099990     -0.953957      2.284410
O	      3.77154      5.64713      1.97469        -0.736973     -0.212635      0.918596
O	      5.64381      7.53103      5.89364         0.041333     -0.041135      1.916404
O	      7.53706      1.88843      1.95133         0.163187     -0.892221     -0.348744
O	      9.43824      3.76041      5.86208        -0.120222     -0.762308      2.356403
O	      7.53698      5.64579      1.95800         0.080404     -0.468305     -0.321792
O	      9.43224      7.53129      5.89103        -0.265388      0.225648      1.817710
O	     11.29045      1.87814      1.97362         2.475187     -0.931613     -0.506718
O	     13.17092      3.76051      5.78791         2.379503     -0.541714      0.207485
O	     11.29174      5.65455      1.98213         3.285667     -0.211136     -0.171113
O	     13.18829      7.53070      5.80165         2.696294      0.036699      0.367130
O	     11.30132      7.54098      0.02574         2.180043      1.152928     -1.777909
O	     11.29653      3.77098      0.01568         2.105237     -0.733030     -1.931824
O	      3.76310      7.54302      0.02686        -0.596562      1.624822     -1.090058
O	      5.66502      9.41788      3.94629         0.081436      2.478401      0.777801
O	      7.53090      7.52742      7.83905         0.991089      3.683989      2.258134
O	      5.66375      5.65348      3.93779         0.075524     -0.043497      1.604774
O	      7.54164      7.54200      0.03599        -1.001493      0.705509     -1.993146
O	      9.41487      1.89741      3.91478         0.099439     -3.153027      1.266422
O	     11.31372      7.52745      7.82768         0.993830      1.015545      2.571035
O	      9.41474      5.63226      3.92185        -0.016312      0.886181      1.759661
O	      1.85754      3.76755      2.02811        -0.963643     -0.501048     -3.078939
O	      3.76362      5.64569      5.88896        -1.053728     -0.401139     -1.250518
O	      1.88304      7.53848      2.01209        -1.158516      2.366317     -1.695053
O	      3.76419      9.41835      5.89707        -0.879558      2.328813      0.844214
O	      5.64632      3.76751      1.98360        -0.085916     -0.884601     -2.636992
O	      7.54422      5.64957      5.89112         0.449840     -0.465134      0.739322
O	      5.64284      7.53808      1.99401        -0.087594      2.704354     -1.346935
O	      7.54428      9.41358      5.89767         0.549644      2.584701      0.871120
O	      9.44828      3.76693      2.01001        -0.288468     -0.878410     -2.034806
O	     11.30232      5.66223      5.89392         0.024548     -1.232929     -1.116477
O	      9.43152      7.53761      1.96806        -0.053786      3.113779     -0.974410
O	     11.30273      9.39961      5.90043         0.088562      3.313039     -0.440135
