# total energy = -673.00175222 eV
 
CRYSTAL
PRIMVEC
11.833886 -0.002052 0.005625 
0.001248 7.896982 0.015772 
3.947343 3.933152 8.202404 
PRIMCOORD
93 1
Li	      5.72807      7.60710      7.90966        -0.189657      0.160220      0.432297
Li	      3.86330      5.73618      3.94786        -0.473997     -0.142085      0.133504
Li	      5.72187      3.79678      7.91622         0.336029     -0.252475      0.651693
Li	      3.86324      9.49348      3.95538        -0.405195      0.757763      0.327258
Li	      5.70254      3.81094      0.02934        -0.645491     -0.371635     -0.214022
Li	      7.61150      5.71318      3.97599         0.014510     -0.051194     -0.040116
Li	      5.69422      7.62109      0.03773        -0.019455      0.464588     -0.006851
Li	      7.61240      9.51543      3.98411         0.017765      0.737424      0.100920
Li	      9.50881      3.81023      0.04023         0.304657     -0.197509     -0.506771
Li	     11.37688      5.73568      3.98673         0.916640     -0.166970     -0.296252
Li	      9.52573      7.62088      0.05219        -0.030957      0.280813     -0.375660
Li	     11.37815      9.49055      3.99538         0.760096      0.702319     -0.299263
Li	      3.81761      3.80739      1.96805        -0.286953     -0.100417      0.134905
Li	      5.72034      5.70473      5.94358         0.173720     -0.030234      0.263735
Li	      3.80582      7.61664      2.00350        -0.119042      0.525280     -0.311880
Li	      5.71986      9.51651      5.95174         0.033682      0.603512      0.060122
Li	      7.61036      3.80695      1.95486         0.065136     -0.164074     -0.145719
Li	      9.51436      5.69563      5.94141        -0.130891     -0.000917      0.042258
Li	      7.60555      7.61697      1.99122         0.075283      0.423535     -0.591910
Li	      9.51622      9.52454      5.94882        -0.211017      0.703589     -0.241244
Li	     11.41873      3.80564      1.90510         0.792365     -0.325315      0.134054
Li	     13.32233      5.70530      6.04452         0.767348     -0.009808      0.248251
Li	     11.43153      7.61655      2.00728         0.614141      0.651340     -0.023437
Li	     13.32339      9.51280      6.04967         0.996665      0.621239      0.138924
Ti	      1.88929      1.89990      1.96701        -2.151297     -2.002612     -0.189484
Ti	      3.83783      3.80029      5.97139        -2.426628     -2.004049      2.273931
Ti	      1.88898      5.71489      1.97419        -1.976979     -0.186683     -0.595950
Ti	      3.84225      7.60992      5.98417        -2.578927      0.882426      2.161490
Ti	      5.70444      1.90364      2.00123         0.096195     -1.563964      0.524527
Ti	      7.61481      3.79962      5.95466         0.217288     -1.823389      1.356823
Ti	      5.70557      5.70976      2.00838         0.315019     -0.255918      0.468133
Ti	      7.62069      7.61026      5.93283        -0.363628      0.470604     -0.024493
Ti	      9.52614      1.87414      1.99588         0.884493     -1.945946     -0.965537
Ti	     11.40504      3.79919      5.96100         1.654271     -1.831759      0.679492
Ti	      9.52691      5.73789      2.00194        -0.130702      0.253810     -1.178970
Ti	     11.38191      7.60898      5.98610         1.657049     -0.037828     -0.523524
Ti	      3.81878      5.69654      7.91870        -2.301366      0.110290      3.002563
Ti	      1.98907      3.80497      3.93317        -2.845092     -0.457450      2.208806
Ti	      0.00945      5.72263      0.01234        -4.276415     -0.286588     -1.145017
Ti	      1.90694      7.61508      3.94616        -2.523085      0.355669      0.952898
Ti	      3.79900      1.90263      0.01478        -2.215658     -4.229778     -1.084214
Ti	      5.73665      3.80371      3.97242        -0.691659     -1.917571      0.802313
Ti	      3.79939      5.71969      0.02130        -2.565525     -0.212932     -2.431179
Ti	      5.74888      7.61501      3.97860        -0.947420      0.301283      0.154456
Ti	     11.41589      5.67423      7.90939         3.693757     -1.403617      1.998210
Ti	      9.45354      3.80447      3.94039         1.839500     -0.669196      0.556975
Ti	     11.41768      9.53826      7.91637         4.269420      2.199945      1.161359
Ti	      9.49259      7.61392      3.96390         1.223417      1.299031     -0.779715
O	      5.71420      5.70283      7.91268         0.034322     -0.010841      1.350657
O	      3.79197      3.80445      4.01246         0.169442     -0.351501     -1.310767
O	      5.71555      9.51083      7.91998         1.854004      1.006288      1.366580
O	      3.76884      7.61448      4.02035        -0.444210      0.106813     -1.297384
O	      5.71211      1.89886      0.02778        -1.597579     -0.858826     -1.697130
O	      7.60635      3.80437      3.98653        -0.101256     -0.331476     -1.088072
O	      5.71233      5.72231      0.03567        -1.664476     -0.283150     -1.909596
O	      7.62151      7.61438      3.95049         0.338802      0.311228     -1.386008
O	      9.51132      1.90239      0.01448         0.137991     -0.930802     -1.483340
O	      9.51187      5.71842      0.02030        -0.252529     -0.524542     -1.253972
O	     11.46677      7.61375      4.01656         1.251392      0.322708     -1.246429
O	      3.81000      1.90757      1.98869        -0.781143     -0.555956      1.166778
O	      5.70921      3.79984      5.95769        -0.103681     -0.798723      1.952744
O	      3.81093      5.70610      1.99531        -0.605568     -0.201430      0.775812
O	      5.70276      7.60968      5.95519         0.029746     -0.037396      1.639787
O	      7.61578      1.90816      1.97172         0.181102     -0.765765     -0.339300
O	      9.53681      3.79969      5.92330        -0.099763     -0.644247      1.988554
O	      7.61569      5.70475      1.97846         0.108568     -0.416029     -0.314032
O	      9.53075      7.60994      5.95255        -0.216999      0.199087      1.530257
O	     11.40837      1.89775      1.99424         2.090278     -0.796110     -0.523881
O	     13.30848      3.79978      5.84836         2.069217     -0.470390      0.207765
O	     11.40966      5.71360      2.00283         2.787649     -0.179802     -0.184226
O	     13.32602      7.60935      5.86224         2.310687      0.025278      0.334835
O	     11.41934      7.61974      0.02601         1.924202      0.994117     -1.554125
O	     11.41451      3.81037      0.01583         1.848901     -0.670980     -1.720534
O	      3.80239      7.62179      0.02713        -0.496266      1.340977     -0.921430
O	      5.72419      9.51623      3.98751         0.069965      2.061097      0.675132
O	      7.60956      7.60603      7.92092         0.911860      2.987023      2.076529
O	      5.72290      5.71253      3.97891         0.063029     -0.005144      1.347148
O	      7.62041      7.62077      0.03637        -0.887014      0.568549     -1.774595
O	      9.51320      1.91723      3.95566         0.067452     -2.624063      0.994257
O	     11.43188      7.60606      7.90943         0.791467      0.914909      2.189013
O	      9.51307      5.69108      3.96282        -0.030472      0.734425      1.434776
O	      1.87694      3.80689      2.04929        -0.805746     -0.420117     -2.629146
O	      3.80292      5.70465      5.95046        -0.901144     -0.330709     -1.040827
O	      1.90271      7.61722      2.03310        -0.993107      1.945837     -1.454719
O	      3.80351      9.51671      5.95865        -0.754299      1.962761      0.768333
O	      5.70528      3.80685      2.00431        -0.093526     -0.759663     -2.242465
O	      7.62301      5.70858      5.95265         0.396823     -0.393097      0.628113
O	      5.70177      7.61681      2.01483        -0.075236      2.262912     -1.099724
O	      7.62307      9.51189      5.95927         0.483566      2.172578      0.768319
O	      9.54695      3.80627      2.03101        -0.268117     -0.735979     -1.701432
O	     11.42037      5.72136      5.95548         0.024796     -1.043256     -0.916383
O	      9.53002      7.61633      1.98862        -0.060686      2.611650     -0.806640
O	     11.42078      9.49777      5.96206         0.076142      2.748990     -0.297916
