# total energy = -678.42905921 eV
 
CRYSTAL
PRIMVEC
11.895201 -0.002063 0.005655 
0.001254 7.937899 0.015854 
3.967795 3.953531 8.244903 
PRIMCOORD
93 1
Li	      5.78758      7.68613      7.99183        -0.162046      0.147274      0.359086
Li	      3.90343      5.79577      3.98888        -0.389202     -0.121168      0.120308
Li	      5.78131      3.83623      7.99846         0.279281     -0.206020      0.560188
Li	      3.90338      9.59211      3.99648        -0.328930      0.638555      0.294686
Li	      5.76178      3.85053      0.02964        -0.511521     -0.314570     -0.205138
Li	      7.69058      5.77253      4.01730         0.007820     -0.047947     -0.030713
Li	      5.75338      7.70027      0.03812        -0.043148      0.387971     -0.001576
Li	      7.69150      9.61429      4.02551         0.006707      0.626047      0.098149
Li	      9.60761      3.84982      0.04065         0.267435     -0.170321     -0.426642
Li	     11.49507      5.79528      4.02816         0.774670     -0.134929     -0.259407
Li	      9.62469      7.70006      0.05274        -0.020552      0.224533     -0.307452
Li	     11.49636      9.58915      4.03689         0.658718      0.586060     -0.251275
Li	      3.85727      3.84694      1.98850        -0.248227     -0.083484      0.101693
Li	      5.77978      5.76399      6.00533         0.154220     -0.026141      0.228781
Li	      3.84537      7.69578      2.02431        -0.103510      0.433480     -0.271670
Li	      5.77929      9.61538      6.01357         0.036357      0.500308      0.050392
Li	      7.68943      3.84650      1.97517         0.052284     -0.144306     -0.119489
Li	      9.61321      5.75480      6.00314        -0.113576     -0.002878      0.034599
Li	      7.68456      7.69611      2.01191         0.059541      0.348311     -0.501947
Li	      9.61509      9.62349      6.01063        -0.178747      0.590209     -0.209776
Li	     11.53737      3.84517      1.92489         0.681294     -0.283473      0.120342
Li	     13.46075      5.76458      6.10733         0.646586     -0.002700      0.226382
Li	     11.55030      7.69568      2.02813         0.536128      0.554916     -0.004439
Li	     13.46181      9.61163      6.11252         0.852627      0.520724      0.142433
Ti	      1.90893      1.91963      1.98745        -1.821809     -1.674218     -0.168949
Ti	      3.87770      3.83978      6.03343        -2.015190     -1.594885      1.862018
Ti	      1.90861      5.77426      1.99470        -1.670903     -0.097930     -0.588995
Ti	      3.88217      7.68898      6.04634        -2.131360      0.675945      1.778732
Ti	      5.76371      1.92342      2.02201         0.053387     -1.256529      0.419759
Ti	      7.69392      3.83910      6.01653         0.199557     -1.493495      1.128619
Ti	      5.76485      5.76907      2.02924         0.244758     -0.242485      0.404699
Ti	      7.69987      7.68932      5.99446        -0.315752      0.384323     -0.032693
Ti	      9.62512      1.89361      2.01662         0.745904     -1.669443     -0.697969
Ti	     11.52353      3.83867      6.02293         1.385830     -1.459444      0.606014
Ti	      9.62589      5.79750      2.02274        -0.115403      0.245539     -0.919643
Ti	     11.50016      7.68803      6.04829         1.385936     -0.039828     -0.513471
Ti	      3.85845      5.75572      8.00097        -1.885770      0.105147      2.512143
Ti	      2.00974      3.84450      3.97403        -2.331157     -0.405167      1.788082
Ti	      0.00955      5.78208      0.01247        -3.487583     -0.257318     -1.056587
Ti	      1.92676      7.69419      3.98716        -2.152531      0.292362      0.749595
Ti	      3.83846      1.92240      0.01494        -1.840638     -3.425706     -0.984715
Ti	      5.79626      3.84323      4.01369        -0.550682     -1.571892      0.658308
Ti	      3.83885      5.77911      0.02152        -2.159118     -0.123086     -2.051341
Ti	      5.80861      7.69412      4.01993        -0.784514      0.251540      0.172160
Ti	     11.53450      5.73318      7.99157         2.895035     -1.125127      1.744806
Ti	      9.55175      3.84399      3.98133         1.512420     -0.580529      0.496830
Ti	     11.53631      9.63736      7.99862         3.384715      1.869293      1.091424
Ti	      9.59121      7.69303      4.00509         1.041764      1.076831     -0.668228
O	      5.77358      5.76208      7.99488        -0.069696     -0.001913      1.137278
O	      3.83137      3.84399      4.05415         0.093649     -0.285265     -1.061805
O	      5.77493      9.60965      8.00226         1.362158      0.897777      1.231922
O	      3.80799      7.69359      4.06212        -0.404117      0.098298     -1.061874
O	      5.77147      1.91859      0.02807        -1.229064     -0.757337     -1.534254
O	      7.68537      3.84389      4.02795        -0.109266     -0.267871     -0.903173
O	      5.77167      5.78177      0.03603        -1.309531     -0.260897     -1.704759
O	      7.70070      7.69349      3.99154         0.297675      0.254211     -1.132125
O	      9.61014      1.92216      0.01463         0.181445     -0.784286     -1.243736
O	      9.61070      5.77784      0.02051        -0.106486     -0.436152     -1.017007
O	     11.58590      7.69285      4.05829         1.064199      0.265656     -0.987867
O	      3.84958      1.92739      2.00935        -0.637263     -0.451262      0.948368
O	      5.76853      3.83932      6.01959        -0.104007     -0.652733      1.632446
O	      3.85052      5.76539      2.01605        -0.483250     -0.184825      0.641873
O	      5.76200      7.68874      6.01706         0.007728     -0.031562      1.378190
O	      7.69491      1.92798      1.99220         0.190025     -0.645555     -0.321071
O	      9.63590      3.83917      5.98485        -0.079467     -0.537542      1.639812
O	      7.69481      5.76401      1.99900         0.122763     -0.363047     -0.296206
O	      9.62977      7.68901      6.01440        -0.169515      0.167582      1.256746
O	     11.52689      1.91747      2.01495         1.734183     -0.665643     -0.524480
O	     13.44674      3.83926      5.90913         1.767523     -0.396194      0.192476
O	     11.52821      5.77296      2.02364         2.317232     -0.148521     -0.175055
O	     13.46448      7.68841      5.92315         1.939797      0.014769      0.297388
O	     11.53798      7.69890      0.02628         1.668488      0.830487     -1.328424
O	     11.53311      3.84995      0.01600         1.603505     -0.590553     -1.500572
O	      3.84191      7.70099      0.02741        -0.415492      1.088346     -0.752561
O	      5.78367      9.61510      4.02893         0.060774      1.677437      0.571956
O	      7.68862      7.68505      8.00322         0.801944      2.345280      1.870892
O	      5.78236      5.77188      4.02025         0.055318      0.025249      1.106662
O	      7.69959      7.69994      0.03675        -0.772932      0.445864     -1.551644
O	      9.61203      1.93715      3.99676         0.047337     -2.127085      0.760544
O	     11.55065      7.68509      7.99161         0.612809      0.810391      1.814650
O	      9.61190      5.75021      4.00399        -0.042871      0.585062      1.149126
O	      1.89644      3.84645      2.07058        -0.655628     -0.330083     -2.123637
O	      3.84244      5.76392      6.01229        -0.757030     -0.265960     -0.844964
O	      1.92248      7.69636      2.05423        -0.838274      1.559554     -1.187247
O	      3.84302      9.61559      6.02056        -0.637966      1.621813      0.689813
O	      5.76457      3.84640      2.02514        -0.093625     -0.632770     -1.861360
O	      7.70221      5.76789      6.01449         0.343813     -0.327466      0.512045
O	      5.76101      7.69594      2.03576        -0.062367      1.852779     -0.876918
O	      7.70227      9.61072      6.02119         0.417464      1.791668      0.657967
O	      9.64613      3.84582      2.05211        -0.250268     -0.601078     -1.391058
O	     11.53902      5.78081      6.01736         0.029304     -0.854689     -0.732553
O	      9.62903      7.69546      2.00928        -0.063230      2.148382     -0.659501
O	     11.53943      9.59645      6.02401         0.071109      2.215339     -0.194416
