# total energy = -91.12774259 eV
 
CRYSTAL
PRIMVEC
0.000010 4.154436 -0.000013 
4.072952 -0.000003 4.074950 
4.111607 -0.000001 -4.113608 
PRIMCOORD
16 1
Li	      2.04624      2.07615     -0.00893         0.000053      0.000103     -0.000440
Li	      2.03980      4.15341      2.03472         0.021502      0.000349     -0.022728
Li	      4.08296      2.07636      2.02786         0.000313     -0.000809      0.000081
Li	      6.12552      4.15362      2.02094        -0.021460     -0.000574      0.022659
Mn	      4.13149      4.15352      4.01561         0.044711     -0.000211     -0.041370
Mn	      4.03380      4.15352      0.03996        -0.043880     -0.000217      0.041464
Ni	      6.13846      2.07630     -0.02904        -0.000077      0.000201      0.000030
Ni	      4.10196      2.07633     -2.06646        -0.000832      0.000152     -0.000096
O	      4.10124      2.07629     -0.02675        -0.052721      0.000054      0.049534
O	      6.13851      4.15351     -0.02903        -0.000556      0.000241      0.000044
O	      6.27740      2.07629      1.86538        -0.078882     -0.000248      0.088628
O	      4.10197      4.15353     -2.06650         0.000074      0.000084      0.000127
O	      5.99943      2.07624     -1.92349         0.079426     -0.000016     -0.088411
O	      4.08266      4.15352      2.02779         0.000202      0.000316      0.000126
O	      8.17565      2.07627     -0.03124         0.053011      0.000157     -0.049498
O	      2.04625      4.15347     -0.00962        -0.000886      0.000418     -0.000150
