# total energy = -689.04401499 eV
 
CRYSTAL
PRIMVEC
12.079148 -0.002095 0.005742 
0.001274 8.060650 0.016099 
4.029153 4.014668 8.372402 
PRIMCOORD
93 1
Li	      5.96796      7.92568      8.24091        -0.092785      0.084495      0.158850
Li	      4.02508      5.97641      4.11320        -0.199107     -0.058964      0.056910
Li	      5.96150      3.95579      8.24775         0.114210     -0.105682      0.284877
Li	      4.02504      9.89107      4.12103        -0.163925      0.300304      0.147054
Li	      5.94136      3.97054      0.03057        -0.187630     -0.149311     -0.136909
Li	      7.93027      5.95245      4.14250         0.007610     -0.028894     -0.011292
Li	      5.93269      7.94027      0.03931        -0.051805      0.185705      0.005167
Li	      7.93121      9.91394      4.15097         0.003619      0.316309      0.054732
Li	      9.90705      3.96980      0.04192         0.143309     -0.076085     -0.197457
Li	     11.85334      5.97589      4.15370         0.381867     -0.057756     -0.129748
Li	      9.92466      7.94005      0.05438        -0.004462      0.093700     -0.133823
Li	     11.85467      9.88801      4.16270         0.341209      0.275507     -0.117058
Li	      3.97748      3.96684      2.05047        -0.123714     -0.037767      0.028101
Li	      5.95992      5.94364      6.19250         0.089957     -0.013987      0.121765
Li	      3.96522      7.93563      2.08740        -0.053691      0.202662     -0.143804
Li	      5.95941      9.91506      6.20100         0.027791      0.232180      0.035506
Li	      7.92908      3.96638      2.03673         0.024591     -0.073522     -0.066955
Li	      9.91282      5.93416      6.19023        -0.051617      0.002193      0.016634
Li	      7.92407      7.93597      2.07461         0.024184      0.159874     -0.236731
Li	      9.91477      9.92342      6.19796        -0.080990      0.281147     -0.107134
Li	     11.89695      3.96502      1.98489         0.355350     -0.145345      0.058880
Li	     13.88027      5.94425      6.29767         0.315799      0.007752      0.126837
Li	     11.91029      7.93554      2.09134         0.295862      0.281238      0.016888
Li	     13.88138      9.91119      6.30303         0.440563      0.238085      0.101656
Ti	      1.96842      1.97947      2.04939        -0.960842     -0.820502     -0.133467
Ti	      3.99856      3.95945      6.22148        -0.927950     -0.596903      0.797814
Ti	      1.96810      5.95423      2.05687        -0.847428      0.074015     -0.317052
Ti	      4.00317      7.92862      6.23478        -0.960641      0.178368      0.764071
Ti	      5.94334      1.98337      2.08504         0.019218     -0.552269      0.145736
Ti	      7.93371      3.95875      6.20405         0.121351     -0.641628      0.555659
Ti	      5.94452      5.94888      2.09249         0.115417     -0.122951      0.142506
Ti	      7.93985      7.92897      6.18129        -0.168973      0.143116     -0.018578
Ti	      9.92509      1.95263      2.07947         0.348703     -0.842958     -0.175974
Ti	     11.88269      3.95830      6.21065         0.659161     -0.595599      0.355490
Ti	      9.92590      5.97819      2.08579        -0.044436      0.148635     -0.377338
Ti	     11.85858      7.92765      6.23679         0.666314     -0.022734     -0.331150
Ti	      3.97870      5.93511      8.25034        -0.850585      0.071197      1.200703
Ti	      2.07238      3.96432      4.09790        -0.991511     -0.208561      0.709408
Ti	      0.00984      5.96230      0.01287        -1.563038     -0.115442     -0.538005
Ti	      1.98680      7.93400      4.11142        -1.119986      0.109789      0.240403
Ti	      3.95810      1.98231      0.01540        -0.801368     -1.422283     -0.598719
Ti	      5.97691      3.96302      4.13878        -0.231777     -0.698954      0.299857
Ti	      3.95851      5.95923      0.02219        -1.013725      0.023834     -0.985554
Ti	      5.98964      7.93393      4.14522        -0.342236      0.140907      0.157977
Ti	     11.89399      5.91186      8.24064         1.067718     -0.496002      0.932025
Ti	      9.84946      3.96380      4.10542         0.645352     -0.306961      0.240611
Ti	     11.89585      9.93772      8.24791         1.297537      0.969042      0.711084
Ti	      9.89014      7.93279      4.12991         0.468528      0.490257     -0.330563
O	      5.95352      5.94167      8.24406        -0.134539      0.013898      0.544811
O	      3.95078      3.96379      4.18051        -0.055592     -0.146343     -0.444632
O	      5.95491      9.90915      8.25168         0.381419      0.470905      0.639746
O	      3.92668      7.93337      4.18872        -0.263077      0.059918     -0.453194
O	      5.95134      1.97838      0.02894        -0.437473     -0.393049     -0.846404
O	      7.92490      3.96369      4.15349        -0.076430     -0.123250     -0.385542
O	      5.95157      5.96197      0.03716        -0.497017     -0.169742     -0.931282
O	      7.94070      7.93327      4.11593         0.171136      0.117831     -0.495001
O	      9.90965      1.98206      0.01508         0.190377     -0.381250     -0.623265
O	      9.91024      5.95791      0.02115         0.139551     -0.206389     -0.465986
O	     11.94700      7.93262      4.18478         0.591650      0.116744     -0.375993
O	      3.96957      1.98746      2.07198        -0.267935     -0.206602      0.395720
O	      5.94831      3.95898      6.20720        -0.066747     -0.283828      0.746937
O	      3.97053      5.94508      2.07888        -0.190639     -0.118238      0.279868
O	      5.94159      7.92838      6.20460        -0.027016     -0.017367      0.660337
O	      7.93473      1.98807      2.05429         0.126200     -0.295779     -0.190735
O	      9.93621      3.95882      6.17137        -0.029651     -0.235987      0.735212
O	      7.93463      5.94366      2.06131         0.092617     -0.197445     -0.169439
O	      9.92990      7.92865      6.20185        -0.044178      0.078649      0.545074
O	     11.88615      1.97723      2.07775         0.839919     -0.301150     -0.372854
O	     13.86584      3.95892      6.09330         0.905347     -0.184637      0.111142
O	     11.88752      5.95290      2.08672         1.075396     -0.079463     -0.107960
O	     13.88412      7.92803      6.10775         0.925604      0.002619      0.195004
O	     11.89759      7.93885      0.02709         0.874715      0.335651     -0.664147
O	     11.89256      3.96994      0.01650         0.840832     -0.274326     -0.804760
O	      3.96164      7.94101      0.02827        -0.183253      0.460175     -0.329768
O	      5.96392      9.91478      4.15450         0.035293      0.728578      0.273312
O	      7.92825      7.92457      8.25265         0.427706      0.863623      1.044510
O	      5.96259      5.95177      4.14555         0.021355      0.037841      0.478227
O	      7.93956      7.93992      0.03789        -0.411396      0.155169     -0.815719
O	      9.91161      1.99753      4.12132         0.003419     -0.915335      0.257766
O	     11.91064      7.92460      8.24069         0.206272      0.419341      0.805835
O	      9.91148      5.92943      4.12878        -0.038137      0.251037      0.464676
O	      1.95554      3.96634      2.13512        -0.296601     -0.174582     -0.811999
O	      3.96219      5.94356      6.19967        -0.369287     -0.116440     -0.361607
O	      1.98239      7.93623      2.11826        -0.418969      0.696702     -0.502060
O	      3.96279      9.91527      6.20820        -0.310419      0.745637      0.412323
O	      5.94423      3.96629      2.08826        -0.051510     -0.270271     -0.830772
O	      7.94227      5.94765      6.20195         0.170763     -0.158162      0.201464
O	      5.94057      7.93580      2.09922        -0.035810      0.794985     -0.337479
O	      7.94232      9.91026      6.20884         0.203640      0.827807      0.334050
O	      9.94678      3.96568      2.11606        -0.155971     -0.253599     -0.599570
O	     11.89866      5.96098      6.20490         0.008529     -0.342350     -0.292271
O	      9.92913      7.93530      2.07189        -0.046169      0.952178     -0.264747
O	     11.89909      9.89554      6.21175         0.035080      0.897041     -0.028719
