# total energy = -690.86636018 eV
 
CRYSTAL
PRIMVEC
12.140463 -0.002105 0.005771 
0.001280 8.101567 0.016181 
4.049606 4.035047 8.414901 
PRIMCOORD
93 1
Li	      6.02869      8.00635      8.32479        -0.062520      0.058609      0.101098
Li	      4.06606      6.03724      4.15506        -0.140748     -0.040071      0.037177
Li	      6.02217      3.99605      8.33170         0.067567     -0.072616      0.189288
Li	      4.06601      9.99174      4.16297        -0.116628      0.202151      0.099404
Li	      6.00182      4.01095      0.03088        -0.113377     -0.096106     -0.096110
Li	      8.01099      6.01303      4.18467         0.008933     -0.026657     -0.011237
Li	      5.99307      8.02109      0.03971        -0.036923      0.123680      0.010750
Li	      8.01194     10.01485      4.19321         0.004298      0.212655      0.035278
Li	     10.00788      4.01021      0.04235         0.096929     -0.048409     -0.122656
Li	     11.97398      6.03671      4.19597         0.256976     -0.043147     -0.082913
Li	     10.02568      8.02086      0.05494         0.003178      0.059018     -0.082085
Li	     11.97533      9.98865      4.20507         0.235991      0.192977     -0.073445
Li	      4.01796      4.00721      2.07134        -0.090534     -0.027367      0.011814
Li	      6.02058      6.00414      6.25552         0.061245     -0.008184      0.086853
Li	      4.00557      8.01640      2.10865        -0.040307      0.135473     -0.096736
Li	      6.02007     10.01598      6.26411         0.021122      0.152581      0.030603
Li	      8.00978      4.00675      2.05746         0.022655     -0.055114     -0.051875
Li	     10.01372      5.99456      6.25324        -0.030546      0.001948      0.009138
Li	      8.00472      8.01674      2.09572         0.013989      0.106032     -0.158702
Li	     10.01568     10.02443      6.26104        -0.051299      0.186678     -0.073555
Li	     12.01805      4.00538      2.00509         0.246942     -0.100091      0.041802
Li	     14.02154      6.00475      6.36177         0.217416      0.005657      0.084070
Li	     12.03150      8.01630      2.11263         0.208547      0.187788      0.018061
Li	     14.02266     10.01207      6.36718         0.299295      0.154780      0.073806
Ti	      1.98845      1.99962      2.07025        -0.674848     -0.534869     -0.058804
Ti	      4.03926      3.99975      6.28479        -0.592937     -0.353685      0.483624
Ti	      1.98814      6.01483      2.07780        -0.572835      0.060516     -0.192347
Ti	      4.04391      8.00932      6.29824        -0.612575      0.074746      0.458430
Ti	      6.00384      2.00355      2.10626         0.029392     -0.360114      0.063812
Ti	      8.01446      3.99904      6.26719         0.080300     -0.407851      0.356696
Ti	      6.00502      6.00943      2.11378         0.084320     -0.074582      0.057157
Ti	      8.02066      8.00968      6.24421        -0.120512      0.085107     -0.022760
Ti	     10.02612      1.97251      2.10063         0.224240     -0.564108     -0.096864
Ti	     12.00363      3.99859      6.27386         0.430235     -0.373341      0.232807
Ti	     10.02693      6.03904      2.10702        -0.022582      0.103069     -0.253649
Ti	     11.97928      8.00834      6.30027         0.435142     -0.012441     -0.232779
Ti	      4.01919      5.99552      8.33431        -0.548326      0.044691      0.809433
Ti	      2.09347      4.00468      4.13961        -0.593756     -0.141245      0.449663
Ti	      0.00995      6.02298      0.01299        -1.011009     -0.062586     -0.329922
Ti	      2.00703      8.01475      4.15327        -0.773456      0.067169      0.150795
Ti	      3.99838      2.00249      0.01556        -0.511324     -0.883420     -0.398566
Ti	      6.03774      4.00335      4.18091        -0.137139     -0.445781      0.212566
Ti	      3.99880      6.01989      0.02242        -0.660174      0.030305     -0.621068
Ti	      6.05060      8.01468      4.18741        -0.212241      0.095137      0.129250
Ti	     12.01505      5.97204      8.32452         0.634333     -0.323903      0.649588
Ti	      9.94970      4.00415      4.14720         0.398196     -0.214551      0.161746
Ti	     12.01693     10.03887      8.33186         0.774592      0.659131      0.517813
Ti	      9.99080      8.01353      4.17195         0.288994      0.319436     -0.213864
O	      6.01412      6.00215      8.32797        -0.099307      0.012861      0.342514
O	      3.99100      4.00413      4.22306        -0.083736     -0.097497     -0.279875
O	      6.01552     10.01001      8.33566         0.190189      0.311789      0.406343
O	      3.96664      8.01411      4.23135        -0.200962      0.040864     -0.279684
O	      6.01191      1.99852      0.02924        -0.258859     -0.263615     -0.571809
O	      8.00557      4.00404      4.19576        -0.056363     -0.077630     -0.245449
O	      6.01214      6.02265      0.03754        -0.295488     -0.121487     -0.629549
O	      8.02152      8.01402      4.15783         0.115436      0.073761     -0.309856
O	     10.01051      2.00223      0.01523         0.154776     -0.254017     -0.428067
O	     10.01110      6.01855      0.02136         0.141025     -0.141818     -0.308242
O	     12.06859      8.01335      4.22737         0.426231      0.073467     -0.221100
O	      4.00996      2.00769      2.09307        -0.169506     -0.134542      0.238114
O	      6.00886      3.99927      6.27038        -0.045171     -0.181662      0.482572
O	      4.01095      6.00559      2.10004        -0.122612     -0.080390      0.168650
O	      6.00206      8.00907      6.26775        -0.024999     -0.010423      0.438194
O	      8.01549      2.00831      2.07520         0.089318     -0.189925     -0.121091
O	     10.03735      3.99911      6.23418        -0.013521     -0.155633      0.471983
O	      8.01539      6.00416      2.08229         0.073867     -0.131541     -0.110851
O	     10.03097      8.00935      6.26497        -0.011769      0.056867      0.337656
O	     12.00713      1.99736      2.09890         0.564256     -0.196372     -0.284766
O	     14.00696      3.99921      6.15532         0.602676     -0.124890      0.066602
O	     12.00850      6.01348      2.10796         0.697979     -0.054458     -0.090491
O	     14.02543      8.00872      6.16991         0.614189     -0.000727      0.128032
O	     12.01868      8.01965      0.02737         0.588407      0.199081     -0.449366
O	     12.01361      4.01035      0.01667         0.563414     -0.174286     -0.553875
O	      4.00196      8.02183      0.02856        -0.115703      0.296034     -0.221320
O	      6.02462     10.01569      4.19678         0.019128      0.465030      0.172609
O	      8.00894      8.00523      8.33665         0.294363      0.511534      0.702097
O	      6.02328      6.01235      4.18775         0.013550      0.028421      0.308725
O	      8.02037      8.02074      0.03827        -0.285285      0.089913     -0.546169
O	     10.01249      2.01786      4.16327        -0.007339     -0.580176      0.147822
O	     12.03187      8.00527      8.32456         0.110238      0.277132      0.509542
O	     10.01236      5.98977      4.17080        -0.025617      0.154897      0.282099
O	      1.97545      4.00671      2.15685        -0.187977     -0.112441     -0.512492
O	      4.00252      6.00406      6.26277        -0.243384     -0.066189     -0.218123
O	      2.00257      8.01700      2.13981        -0.278140      0.449327     -0.326797
O	      4.00314     10.01619      6.27139        -0.210301      0.482900      0.300280
O	      6.00473      4.00666      2.10952        -0.030682     -0.174096     -0.534121
O	      8.02311      6.00819      6.26507         0.114290     -0.106238      0.127550
O	      6.00103      8.01657      2.12058        -0.026213      0.507713     -0.201617
O	      8.02316     10.01113      6.27204         0.139061      0.543210      0.228253
O	     10.04802      4.00604      2.13760        -0.115451     -0.154805     -0.380518
O	     12.01976      6.02165      6.26805        -0.000026     -0.205442     -0.171842
O	     10.03020      8.01607      2.09299        -0.037689      0.618083     -0.149787
O	     12.02019      9.99626      6.27497         0.015476      0.548318     -0.005365
