# total energy = -691.91652589 eV
 
CRYSTAL
PRIMVEC
12.201779 -0.002116 0.005800 
0.001286 8.142484 0.016263 
4.070058 4.055426 8.457401 
PRIMCOORD
93 1
Li	      6.08975      8.08743      8.40909        -0.032071      0.030609      0.048850
Li	      4.10723      6.09837      4.19714        -0.086977     -0.025611      0.019388
Li	      6.08316      4.03651      8.41607         0.027561     -0.038416      0.102945
Li	      4.10719     10.09293      4.20514        -0.073200      0.103789      0.050489
Li	      6.06261      4.05157      0.03120        -0.051880     -0.043615     -0.054123
Li	      8.09211      6.07393      4.22705         0.008717     -0.019595     -0.011402
Li	      6.05377      8.10231      0.04011        -0.020521      0.060700      0.013412
Li	      8.09306     10.11626      4.23567         0.007916      0.114982      0.012894
Li	     10.10922      4.05082      0.04278         0.046717     -0.023550     -0.048201
Li	     12.09524      6.09785      4.23846         0.138298     -0.032733     -0.038728
Li	     10.12720      8.10208      0.05549        -0.000285      0.028012     -0.033893
Li	     12.09659     10.08980      4.24765         0.126816      0.105191     -0.036309
Li	      4.05865      4.04780      2.09232        -0.055479     -0.012770     -0.000567
Li	      6.08155      6.06493      6.31887         0.031372     -0.006277      0.051785
Li	      4.04613      8.09758      2.13001        -0.022833      0.068788     -0.046922
Li	      6.08103     10.11740      6.32755         0.010221      0.078042      0.022959
Li	      8.09089      4.04733      2.07829         0.014495     -0.028600     -0.036870
Li	     10.11512      6.05527      6.31657        -0.012055     -0.000967      0.002809
Li	      8.08579      8.09793      2.11695         0.005276      0.054090     -0.080966
Li	     10.11710     10.12594      6.32445        -0.022620      0.092021     -0.040442
Li	     12.13974      4.04593      2.02539         0.133762     -0.056532      0.021357
Li	     14.16354      6.06555      6.42619         0.108791      0.003535      0.040058
Li	     12.15334      8.09748      2.13402         0.114204      0.098967      0.012221
Li	     14.16466     10.11346      6.43166         0.150323      0.074424      0.040892
Ti	      2.00859      2.01986      2.09121        -0.371693     -0.258734      0.014669
Ti	      4.08016      4.04025      6.34844        -0.275903     -0.155778      0.197943
Ti	      2.00827      6.07574      2.09884        -0.298580      0.029871     -0.059080
Ti	      4.08486      8.09042      6.36202        -0.286473      0.015166      0.183278
Ti	      6.06464      2.02385      2.12759         0.035939     -0.169386     -0.004833
Ti	      8.09562      4.03954      6.33065         0.038686     -0.195131      0.151818
Ti	      6.06583      6.07028      2.13520         0.054190     -0.039369     -0.013188
Ti	      8.10188      8.09078      6.30744        -0.064919      0.038109     -0.027687
Ti	     10.12765      1.99247      2.12191         0.105185     -0.286502     -0.057578
Ti	     12.12518      4.03908      6.33740         0.206241     -0.174203      0.085108
Ti	     10.12847      6.10019      2.12835        -0.008171      0.054848     -0.145656
Ti	     12.10060      8.08944      6.36408         0.203088     -0.004902     -0.127854
Ti	      4.05989      6.05623      8.41871        -0.269117      0.015058      0.434715
Ti	      2.11467      4.04523      4.18153        -0.215384     -0.071752      0.227333
Ti	      0.01004      6.08398      0.01313        -0.495024     -0.014025     -0.127257
Ti	      2.02735      8.09591      4.19533        -0.408026      0.028028      0.085660
Ti	      4.03888      2.02277      0.01572        -0.241911     -0.409587     -0.182402
Ti	      6.09887      4.04389      4.22324        -0.046238     -0.214004      0.126856
Ti	      4.03928      6.08085      0.02265        -0.319794      0.019152     -0.271787
Ti	      6.11188      8.09584      4.22982        -0.089694      0.046588      0.086618
Ti	     12.13673      6.03252      8.40882         0.280478     -0.163244      0.359763
Ti	     10.05046      4.04469      4.18919         0.174073     -0.116728      0.096304
Ti	     12.13862     10.14054      8.41624         0.338703      0.338605      0.302642
Ti	     10.09198      8.09468      4.21420         0.118655      0.159644     -0.093387
O	      6.07501      6.06293      8.41231        -0.047002      0.008823      0.153665
O	      4.03140      4.04468      4.26582        -0.106194     -0.049383     -0.140131
O	      6.07644     10.11138      8.42007         0.070951      0.151639      0.180492
O	      4.00681      8.09528      4.27420        -0.125852      0.021865     -0.116246
O	      6.07280      2.01876      0.02953        -0.120221     -0.126515     -0.291159
O	      8.08663      4.04458      4.23825        -0.031724     -0.036606     -0.120962
O	      6.07302      6.08364      0.03791        -0.134917     -0.064209     -0.326708
O	      8.10276      8.09517      4.19993         0.059840      0.034185     -0.140842
O	     10.11189      2.02251      0.01539         0.094518     -0.125684     -0.221852
O	     10.11249      6.07950      0.02158         0.098267     -0.073513     -0.151131
O	     12.19080      8.09450      4.27018         0.253589      0.037854     -0.089820
O	      4.05057      2.02802      2.11426        -0.074344     -0.060703      0.096216
O	      6.06971      4.03977      6.33388        -0.028446     -0.083993      0.226460
O	      4.05157      6.06640      2.12131        -0.056741     -0.043080      0.065721
O	      6.06284      8.09018      6.33122        -0.023707     -0.006015      0.215637
O	      8.09666      2.02864      2.09621         0.040634     -0.091263     -0.053244
O	     10.13899      4.03961      6.29732        -0.005845     -0.073611      0.234988
O	      8.09656      6.06496      2.10338         0.038735     -0.068690     -0.049185
O	     10.13255      8.09045      6.32841         0.007311      0.027026      0.153817
O	     12.12871      2.01759      2.12015         0.293333     -0.096181     -0.176659
O	     14.14881      4.03971      6.21764         0.304450     -0.062249      0.029636
O	     12.13010      6.07437      2.12930         0.340756     -0.027089     -0.072843
O	     14.16746      8.08982      6.23239         0.308509     -0.001889      0.059565
O	     12.14039      8.10086      0.02765         0.294529      0.087876     -0.234417
O	     12.13527      4.05096      0.01684         0.284821     -0.080278     -0.300849
O	      4.04248      8.10306      0.02884        -0.050891      0.140350     -0.115817
O	      6.08562     10.11711      4.23928         0.006839      0.218802      0.079661
O	      8.09005      8.08629      8.42106         0.156898      0.227562      0.343635
O	      6.08427      6.07323      4.23015         0.008035      0.020762      0.142001
O	      8.10158      8.10196      0.03866        -0.149599      0.038977     -0.275770
O	     10.11389      2.03829      4.20543        -0.010085     -0.280522      0.054041
O	     12.15371      8.08633      8.40886         0.035163      0.133977      0.227413
O	     10.11375      6.05043      4.21304        -0.017044      0.073473      0.118687
O	      1.99545      4.04728      2.17869        -0.076751     -0.053312     -0.243857
O	      4.04306      6.06486      6.32619        -0.116105     -0.031284     -0.090620
O	      2.02284      8.09819      2.16148        -0.138099      0.221565     -0.165701
O	      4.04367     10.11762      6.33490        -0.101292      0.231833      0.173698
O	      6.06553      4.04723      2.13088        -0.013694     -0.082368     -0.257458
O	      8.10436      6.06903      6.32852         0.053047     -0.054291      0.062885
O	      6.06181      8.09775      2.14206        -0.011173      0.244832     -0.079784
O	      8.10441     10.11250      6.33555         0.067555      0.268372      0.124436
O	     10.14977      4.04661      2.15925        -0.071342     -0.069899     -0.176988
O	     12.14149      6.08262      6.33153        -0.000717     -0.085581     -0.065876
O	     10.13177      8.09725      2.11418        -0.027297      0.295780     -0.055272
O	     12.14191     10.09749      6.33852         0.010439      0.246445      0.016902
