# total energy = -691.86378085 eV
 
CRYSTAL
PRIMVEC
12.324410 -0.002137 0.005859 
0.001299 8.224318 0.016426 
4.110963 4.096184 8.542400 
PRIMCOORD
93 1
Li	      2.10181      4.15462      0.03657         0.035512     -0.038709     -0.055356
Li	      4.19020      6.22157      4.28193         0.015932      0.003600     -0.013552
Li	      2.09509      0.02187      0.04368        -0.037848      0.037401     -0.079982
Li	      4.18886      2.07250      4.27365         0.007145     -0.086910     -0.046412
Li	      6.18508      4.13342      0.03183         0.031856      0.042325      0.044788
Li	      8.25559      6.19663      4.31244         0.005961     -0.014832     -0.012862
Li	      6.17476      0.04167      0.02450         0.031009     -0.062905      0.016274
Li	      8.25526      2.09630      4.30482         0.006695     -0.081904     -0.033478
Li	     10.31345      4.13265      0.04364        -0.058628      0.020208      0.103206
Li	     12.33958      6.22103      4.32408        -0.091204     -0.021699      0.060236
Li	     10.33049      0.04145      0.04018        -0.006135     -0.030139      0.052958
Li	     12.33966      2.06931      4.31704        -0.081172     -0.046639      0.045509
Li	      4.14065      4.12957      2.13459         0.013757      0.012108     -0.011241
Li	      6.20441      6.18745      6.44652        -0.040555     -0.003793     -0.032299
Li	      4.12787      8.26116      2.17303         0.008408     -0.063264      0.057388
Li	      6.20388     10.32179      6.45537        -0.013149     -0.072487     -0.005952
Li	      8.25435      4.12909      2.12028         0.001713      0.029153     -0.001444
Li	     10.31946      6.17759      6.44417         0.021476     -0.005002     -0.014355
Li	      8.24912      8.26152      2.15971        -0.021926     -0.054502      0.071889
Li	     10.32148     10.33049      6.45221         0.020730     -0.090477      0.026962
Li	     12.38498      4.12767      2.06632        -0.126793      0.051632     -0.011009
Li	     14.44967      6.18808      6.55601        -0.112554     -0.001103     -0.075476
Li	     12.39886      8.26106      2.17714        -0.113779     -0.100167      0.001969
Li	     14.45082     10.31777      6.56159        -0.163506     -0.073756     -0.070783
Ti	      2.04917      2.06067      2.13346         0.359296      0.278355      0.139597
Ti	      4.16258      4.12187      6.47669         0.315521      0.140776     -0.319483
Ti	      2.04883      6.19848      2.14124         0.257641     -0.064890      0.222445
Ti	      4.16737      8.25386      6.49054         0.304646      0.017024     -0.279111
Ti	      6.18715      2.06473      2.17057        -0.015775      0.177402     -0.089902
Ti	      8.25916      4.12114      6.45854        -0.038391      0.180945     -0.261199
Ti	      6.18838      6.19291      2.17833        -0.013508      0.025941     -0.083984
Ti	      8.26555      8.25423      6.43485         0.066525     -0.012559     -0.029842
Ti	     10.33224      2.03272      2.16477        -0.075819      0.285695     -0.038514
Ti	     12.37014      4.12068      6.46542        -0.202128      0.158936     -0.321159
Ti	     10.33308      6.22343      2.17135        -0.012606     -0.056293      0.046009
Ti	     12.34504      8.25285      6.49264        -0.247083      0.002214      0.042788
Ti	      0.03095      2.08239      0.04638         0.257941     -0.022234     -0.310107
Ti	      2.15739      4.12695      4.26600         0.483364      0.072565     -0.109119
Ti	      0.01026      6.20687      0.01339         0.489022      0.008914      0.236617
Ti	      2.06831      8.25945      4.28008         0.451973     -0.036434      0.031898
Ti	      4.12046      2.06363      0.01603         0.212711      0.356332      0.248458
Ti	      6.22208      4.12558      4.30856         0.095384      0.197201     -0.000853
Ti	      4.12088      6.20369      0.02310         0.291940     -0.048791      0.324421
Ti	      6.23534      8.25938      4.31526         0.119988     -0.056417     -0.023602
Ti	      8.27094      2.05820      0.03629        -0.216376      0.133535     -0.271646
Ti	     10.25349      4.12640      4.27382        -0.191080      0.096519     -0.028760
Ti	      8.27288      6.24920      0.04386        -0.273140     -0.336030     -0.185522
Ti	     10.29584      8.25821      4.29933        -0.163291     -0.149625      0.168595
O	      2.08678      2.08922      0.03985         0.089965     -0.004000     -0.177258
O	      4.11285      4.12639      4.35200        -0.109289      0.049315      0.079771
O	      2.08823      6.21946      0.04777         0.013371     -0.151735     -0.203235
O	      4.08775      8.25881      4.36055         0.100907     -0.015781      0.140770
O	      6.19547      2.05954      0.03013         0.068292      0.131764      0.300240
O	      8.25000      4.12629      4.32387         0.021392      0.039475      0.097276
O	      6.19570      6.20653      0.03868         0.078539      0.068766      0.329237
O	      8.26644      8.25870      4.28478        -0.070632     -0.037204      0.159425
O	     10.31616      2.06337      0.01570        -0.107195      0.127654      0.254234
O	     10.31676      6.20231      0.02201        -0.140728      0.071866      0.183947
O	     12.43708      8.25802      4.35644        -0.243394     -0.033573      0.102177
O	      4.13240      2.06899      2.15698         0.111337      0.073433     -0.150114
O	      6.19232      4.12138      6.46183         0.046557      0.085245     -0.261141
O	      4.13341      6.18895      2.16416         0.088511      0.043012     -0.130843
O	      6.18532      8.25361      6.45912         0.013281      0.016645     -0.224476
O	      8.26022      2.06962      2.13856        -0.063772      0.087253      0.060667
O	     10.34381      4.12121      6.42453        -0.028258      0.075492     -0.190650
O	      8.26013      6.18748      2.14587        -0.054773      0.074857      0.075403
O	     10.33724      8.25390      6.45626         0.010938     -0.034335     -0.166179
O	     12.37374      2.05834      2.16299        -0.351197      0.088920      0.071503
O	     14.43464      4.12132      6.34325        -0.343414      0.062106     -0.019160
O	     12.37515      6.19709      2.17232        -0.353742      0.041481     -0.043556
O	     14.45367      8.25325      6.35830        -0.333925      0.004158     -0.064501
O	      0.05994      0.04233      0.00592        -0.279167     -0.052004      0.167698
O	      0.05600      4.13493      0.01132        -0.263196      0.052345      0.230433
O	      4.12286      0.04243      0.01300         0.050532     -0.137329      0.111194
O	      6.20728      2.09718      4.30850        -0.012229     -0.209895     -0.097513
O	      4.14252      4.15347      0.04879        -0.114995     -0.159222     -0.359900
O	      6.20718      6.19592      4.31561        -0.000073     -0.014157     -0.153730
O	      8.26395      0.04131      0.02302         0.114515     -0.033145      0.270986
O	     10.31820      2.07947      4.29039        -0.002659      0.262833     -0.101720
O	      8.28828      4.15350      0.03633        -0.053158     -0.132790     -0.260882
O	     10.31807      6.17266      4.29815         0.010704     -0.073105     -0.160499
O	      2.03576      4.12904      2.22271         0.155419      0.068978      0.217414
O	      4.12472      6.18737      6.45399         0.147136      0.021502      0.128568
O	      2.06372      8.26178      2.20515         0.159825     -0.205286      0.123956
O	      4.12536     10.32201      6.46287         0.149997     -0.234053     -0.143302
O	      6.18807      4.12899      2.17392         0.036462      0.078715      0.230970
O	      8.26807      6.19163      6.45636        -0.064275      0.048873     -0.029586
O	      6.18426      8.26134      2.18533         0.015548     -0.224681      0.128370
O	      8.26813     10.31679      6.46354        -0.063767     -0.257678     -0.104606
O	     10.35481      4.12836      2.20287         0.003118      0.067339      0.184798
O	     12.38676      6.20550      6.45943        -0.006725      0.107752      0.127097
O	     10.33645      8.26082      2.15689        -0.004708     -0.288414      0.085824
O	     12.38720     10.30148      6.46657        -0.010778     -0.248618      0.055892
