# total energy = -690.83558855 eV
 
CRYSTAL
PRIMVEC
12.385725 -0.002148 0.005888 
0.001306 8.265235 0.016508 
4.131416 4.116563 8.584899 
PRIMCOORD
93 1
Li	      2.14333      4.21655      0.07964         0.075252     -0.075506     -0.102645
Li	      4.23200      6.28363      4.32464         0.054945      0.016718     -0.025783
Li	      2.13654      0.04257      0.08683        -0.059564      0.081548     -0.171132
Li	      4.23065      2.13429      4.31637         0.036841     -0.174896     -0.090655
Li	      6.24677      4.17466      0.03215         0.057951      0.081818      0.100193
Li	      8.33794      6.25844      4.35546         0.010491     -0.009293     -0.012059
Li	      6.23636      0.08321      0.02483         0.061836     -0.120980      0.015701
Li	      8.33762      2.15834      4.34784         0.011684     -0.182327     -0.051641
Li	     10.41633      4.17388      0.04407        -0.108156      0.039592      0.179557
Li	     12.46266      6.28309      4.36722        -0.203144     -0.024999      0.120134
Li	     10.43354      0.08298      0.04067        -0.017247     -0.054070      0.089490
Li	     12.46276      2.13108      4.36019        -0.190877     -0.121744      0.090438
Li	      4.18195      4.17076      2.15588         0.043873      0.025023     -0.012545
Li	      6.26629      6.24918      6.51082        -0.080862      0.001654     -0.075225
Li	      4.16906      8.34357      2.19471         0.022668     -0.122932      0.113828
Li	      6.26575     10.42475      6.51976        -0.021323     -0.140225     -0.027743
Li	      8.33668      4.17028      2.14143        -0.005041      0.060832      0.018689
Li	     10.42240      6.23922      6.50845         0.038785     -0.011325     -0.029941
Li	      8.33141      8.34393      2.18126        -0.028520     -0.108231      0.147755
Li	     10.42445     10.43355      6.51657         0.038626     -0.181353      0.056368
Li	     12.50853      4.16884      2.08692        -0.285852      0.105871     -0.027191
Li	     14.59379      6.24981      6.62140        -0.245387     -0.005657     -0.139355
Li	     12.52254      8.34346      2.19885        -0.257756     -0.201021     -0.006660
Li	     14.59496     10.42069      6.62704        -0.343437     -0.149274     -0.142830
Ti	      2.06961      2.08123      2.15474         0.817898      0.539508      0.190556
Ti	      4.20411      4.16298      6.54129         0.608935      0.289323     -0.540574
Ti	      2.06927      6.26032      2.16260         0.538703     -0.120506      0.363379
Ti	      4.20896      8.33620      6.55528         0.586210      0.036618     -0.482034
Ti	      6.24887      2.08532      2.19222        -0.080393      0.355348     -0.116811
Ti	      8.34155      4.16225      6.52297        -0.080779      0.340179     -0.467987
Ti	      6.25010      6.25468      2.20005        -0.035807      0.039896     -0.079739
Ti	      8.34800      8.33657      6.49905         0.118836      0.000545     -0.009193
Ti	     10.43530      2.05300      2.18636        -0.141098      0.577712     -0.049028
Ti	     12.49352      4.16179      6.52991        -0.372459      0.319113     -0.620082
Ti	     10.43615      6.28551      2.19301        -0.071458     -0.113845      0.108845
Ti	     12.46819      8.33518      6.55740        -0.448118     -0.017982      0.107505
Ti	      0.05181      2.12364      0.08955         0.505609     -0.043939     -0.701361
Ti	      2.17892      4.16812      4.30855         0.783794      0.135132     -0.212081
Ti	      0.01035      6.26879      0.01353         0.977234     -0.008365      0.417256
Ti	      2.08893      8.34185      4.32278         1.000180     -0.062952      0.038557
Ti	      4.16156      2.08422      0.01619         0.395603      0.670010      0.455367
Ti	      6.28415      4.16674      4.35154         0.140366      0.388738     -0.034668
Ti	      4.16200      6.26557      0.02333         0.550723     -0.111761      0.547399
Ti	      6.29754      8.34178      4.35831         0.189337     -0.126136     -0.070765
Ti	      8.37399      2.09921      0.07936        -0.375534      0.262866     -0.606851
Ti	     10.35578      4.16756      4.31646        -0.321762      0.201968     -0.071908
Ti	      8.37596      6.33202      0.08700        -0.452757     -0.683966     -0.415900
Ti	     10.39855      8.34059      4.34221        -0.275153     -0.299249      0.300907
O	      2.12815      2.13053      0.08295         0.165076     -0.021028     -0.323516
O	      4.15387      4.16755      4.39542        -0.077093      0.101894      0.150318
O	      2.12962      6.30197      0.09096         0.075954     -0.299430     -0.348368
O	      4.12853      8.34119      4.40404         0.247092     -0.037633      0.234052
O	      6.25728      2.08008      0.03043         0.129462      0.261332      0.599410
O	      8.33229      4.16745      4.36700         0.041686      0.080819      0.191136
O	      6.25751      6.26845      0.03907         0.128013      0.142003      0.667899
O	      8.34890      8.34109      4.32752        -0.131677     -0.065985      0.294307
O	     10.41907      2.08395      0.01586        -0.242005      0.260224      0.530515
O	     10.41968      6.26418      0.02224        -0.342180      0.144858      0.370514
O	     12.56114      8.34040      4.39990        -0.615965     -0.065867      0.162817
O	      4.17362      2.08963      2.17849         0.211563      0.147994     -0.252081
O	      6.25409      4.16249      6.52629         0.099613      0.162647     -0.489372
O	      4.17464      6.25069      2.18574         0.180028      0.094452     -0.224850
O	      6.24701      8.33594      6.52355         0.062228      0.033988     -0.440896
O	      8.34262      2.09027      2.15989        -0.108512      0.172601      0.098732
O	     10.44700      4.16232      6.48861        -0.083751      0.148052     -0.381275
O	      8.34252      6.24920      2.16727        -0.120930      0.155282      0.141241
O	     10.44035      8.33623      6.52066        -0.008431     -0.066993     -0.313179
O	     12.49716      2.07887      2.18456        -0.759045      0.176210      0.210931
O	     14.57862      4.16243      6.40652        -0.691768      0.126922     -0.011079
O	     12.49859      6.25891      2.19399        -0.686788      0.078184     -0.037101
O	     14.59784      8.33558      6.42173        -0.697601      0.001504     -0.096684
O	      0.12216      0.08386      0.00609        -0.552318     -0.090143      0.349895
O	      0.11818      4.17617      0.01146        -0.529317      0.107480      0.491532
O	      4.16399      0.08398      0.01322         0.096946     -0.262232      0.237115
O	      6.26920      2.15922      4.35156        -0.015346     -0.405815     -0.185219
O	      4.20439      4.21538      0.09198        -0.251723     -0.277209     -0.695156
O	      6.26909      6.25773      4.35865        -0.002963     -0.033315     -0.296459
O	      8.34639      0.08285      0.02333         0.243416     -0.063905      0.542681
O	     10.42112      2.10021      4.33318         0.006382      0.504154     -0.172490
O	      8.39151      4.21541      0.07941        -0.074784     -0.250417     -0.473608
O	     10.42099      6.23423      4.34102         0.029188     -0.135437     -0.283429
O	      2.05606      4.17022      2.24487         0.294271      0.124960      0.410891
O	      4.16588      6.24909      6.51837         0.301087      0.041937      0.217873
O	      2.08430      8.34420      2.22715         0.324963     -0.411077      0.248851
O	      4.16651     10.42497      6.52734         0.311508     -0.470858     -0.326835
O	      6.24980      4.17018      2.19561         0.068991      0.148242      0.448562
O	      8.35055      6.25340      6.52077        -0.122554      0.093272     -0.058858
O	      6.24595      8.34374      2.20712         0.035082     -0.433799      0.213090
O	      8.35061     10.41970      6.52802        -0.122218     -0.512276     -0.242880
O	     10.45810      4.16954      2.22484         0.043128      0.125591      0.342804
O	     12.51031      6.26740      6.52386        -0.005545      0.191684      0.208384
O	     10.43955      8.34322      2.17840         0.002503     -0.565602      0.146613
O	     12.51077     10.40423      6.53107        -0.019563     -0.454741      0.075632
