# total energy = -689.17424856 eV
 
CRYSTAL
PRIMVEC
12.447041 -0.002158 0.005917 
0.001312 8.306152 0.016590 
4.151868 4.136942 8.627399 
PRIMCOORD
93 1
Li	      2.18516      4.27888      0.12314         0.117175     -0.121700     -0.149714
Li	      4.27401      6.34599      4.36756         0.096480      0.028396     -0.035037
Li	      2.17829      0.06347      0.13040        -0.076782      0.128636     -0.260989
Li	      4.27265      2.19659      4.35929         0.064146     -0.266967     -0.138942
Li	      6.30878      4.21609      0.03246         0.077226      0.122040      0.159698
Li	      8.42069      6.32056      4.39869         0.010198     -0.007980     -0.015619
Li	      6.29827      0.12516      0.02515         0.102688     -0.184565      0.012975
Li	      8.42038      2.22088      4.39108         0.009006     -0.277507     -0.068637
Li	     10.51971      4.21530      0.04451        -0.170922      0.056601      0.255534
Li	     12.58637      6.34546      4.41057        -0.306105     -0.039524      0.190004
Li	     10.53712      0.12493      0.04116        -0.033161     -0.081873      0.123673
Li	     12.58647      2.19334      4.40354        -0.289398     -0.188420      0.134899
Li	      4.22346      4.21216      2.17728         0.076935      0.040074     -0.003076
Li	      6.32849      6.31121      6.57545        -0.129261      0.003633     -0.120096
Li	      4.21044      8.42638      2.21649         0.042753     -0.192514      0.171010
Li	      6.32795     10.52823      6.58448        -0.032592     -0.208790     -0.052012
Li	      8.41943      4.21167      2.16268        -0.011289      0.098409      0.040714
Li	     10.52585      6.30115      6.57305         0.059186     -0.019045     -0.045354
Li	      8.41410      8.42674      2.20291        -0.041516     -0.167520      0.217889
Li	     10.52791     10.53711      6.58125         0.058589     -0.272301      0.086788
Li	     12.63268      4.21022      2.10764        -0.462149      0.152361     -0.040519
Li	     14.73865      6.31185      6.68713        -0.387666     -0.012973     -0.205936
Li	     12.64682      8.42628      2.22068        -0.427777     -0.304877     -0.018228
Li	     14.73982     10.52412      6.69282        -0.548859     -0.220656     -0.236641
Ti	      2.09015      2.10188      2.17613         1.380341      0.801794      0.237287
Ti	      4.24583      4.20431      6.60622         0.936182      0.500061     -0.719233
Ti	      2.08981      6.32244      2.18406         0.872672     -0.171664      0.497310
Ti	      4.25073      8.41893      6.62035         0.904158      0.020880     -0.685779
Ti	      6.31089      2.10603      2.21398        -0.172431      0.553378     -0.134232
Ti	      8.42434      4.20356      6.58771        -0.130554      0.496158     -0.676852
Ti	      6.31214      6.31677      2.22190        -0.049005      0.023675     -0.068839
Ti	      8.43086      8.41931      6.56355         0.118135      0.035483      0.041468
Ti	     10.53888      2.07339      2.20806        -0.188483      0.872529     -0.059247
Ti	     12.61752      4.20309      6.59472        -0.523898      0.485450     -0.947580
Ti	     10.53974      6.34789      2.21478        -0.184224     -0.163858      0.158360
Ti	     12.59193      8.41791      6.62249        -0.616712     -0.062292      0.179544
Ti	      0.07288      2.16520      0.13315         0.750571     -0.087272     -1.114312
Ti	      2.20053      4.20948      4.35131         1.037477      0.194986     -0.283726
Ti	      0.01046      6.33101      0.01366         1.513229     -0.020474      0.632005
Ti	      2.10967      8.42464      4.36568         1.662286     -0.085371      0.045670
Ti	      4.20288      2.10490      0.01635         0.551457      0.941551      0.659724
Ti	      6.34651      4.20809      4.39472         0.192463      0.562928     -0.063661
Ti	      4.20330      6.32775      0.02357         0.785262     -0.186552      0.739698
Ti	      6.36005      8.42457      4.40157         0.226349     -0.188098     -0.090660
Ti	      8.47766      2.14052      0.12286        -0.491838      0.364679     -0.963362
Ti	     10.45856      4.20893      4.35930        -0.409550      0.314682     -0.098144
Ti	      8.47964      6.41535      0.13058        -0.565532     -1.014727     -0.633211
Ti	     10.50176      8.42337      4.38532        -0.362433     -0.451562      0.398256
O	      2.16982      2.17216      0.12649         0.245861     -0.035242     -0.458307
O	      4.19510      4.20892      4.43904        -0.040430      0.141806      0.210625
O	      2.17131      6.38501      0.13457         0.186308     -0.436601     -0.466915
O	      4.16950      8.42398      4.44775         0.382168     -0.040509      0.321173
O	      6.31938      2.10073      0.03074         0.165757      0.385372      0.888577
O	      8.41500      4.20881      4.41035         0.067302      0.121922      0.267915
O	      6.31962      6.33066      0.03946         0.136248      0.214245      1.003026
O	      8.43176      8.42388      4.37047        -0.159170     -0.095186      0.426078
O	     10.52248      2.10464      0.01602        -0.398102      0.392403      0.828487
O	     10.52310      6.32636      0.02246        -0.625854      0.219142      0.580443
O	     12.68581      8.42318      4.44357        -1.116385     -0.083031      0.219239
O	      4.21504      2.11037      2.20011         0.311152      0.218647     -0.345327
O	      6.31616      4.20380      6.59106         0.154177      0.233345     -0.715742
O	      4.21608      6.31273      2.20744         0.263737      0.143836     -0.315889
O	      6.30902      8.41868      6.58830         0.131486      0.060345     -0.647323
O	      8.42542      2.11101      2.18133        -0.152306      0.260840      0.124467
O	     10.55068      4.20364      6.55302        -0.154288      0.220391     -0.569214
O	      8.42532      6.31123      2.18878        -0.188238      0.243156      0.209646
O	     10.54398      8.41897      6.58538        -0.045358     -0.098001     -0.471684
O	     12.62120      2.09951      2.20625        -1.268197      0.263634      0.363586
O	     14.72332      4.20374      6.47011        -1.063737      0.197156     -0.004195
O	     12.62266      6.32103      2.21576        -1.034847      0.105950     -0.036968
O	     14.74273      8.41831      6.48547        -1.097276      0.001691     -0.132586
O	      0.18500      0.12580      0.00627        -0.824874     -0.139112      0.516546
O	      0.18097      4.21761      0.01160        -0.784162      0.179694      0.727752
O	      4.20532      0.12593      0.01343         0.144752     -0.395584      0.377229
O	      6.33143      2.22177      4.39483        -0.018057     -0.593471     -0.271478
O	      4.26668      4.27769      0.13561        -0.369802     -0.348844     -1.013876
O	      6.33132      6.31983      4.40192        -0.010824     -0.046353     -0.446221
O	      8.42923      0.12479      0.02364         0.361602     -0.096416      0.820605
O	     10.52456      2.12105      4.37619         0.011265      0.740704     -0.239253
O	      8.49535      4.27773      0.12290        -0.088414     -0.341031     -0.676414
O	     10.52442      6.29611      4.38410         0.041828     -0.195593     -0.397498
O	      2.07647      4.21162      2.26716         0.456858      0.181482      0.588311
O	      4.20722      6.31112      6.58307         0.466337      0.072689      0.286701
O	      2.10499      8.42701      2.24925         0.504029     -0.612473      0.363704
O	      4.20786     10.52845      6.59212         0.503590     -0.730993     -0.512343
O	      6.31183      4.21157      2.21740         0.110958      0.198617      0.644956
O	      8.43343      6.31546      6.58549        -0.180336      0.132631     -0.074493
O	      6.30794      8.42655      2.22903         0.059880     -0.635753      0.288235
O	      8.43350     10.52312      6.59281        -0.174891     -0.765647     -0.393238
O	     10.56190      4.21092      2.24693         0.081141      0.171574      0.496896
O	     12.63449      6.32961      6.58862        -0.007483      0.280480      0.279874
O	     10.54317      8.42604      2.20003         0.011817     -0.851722      0.201617
O	     12.63494     10.50750      6.59589        -0.028046     -0.639491      0.100406
