# total energy = -686.87681758 eV
 
CRYSTAL
PRIMVEC
12.508356 -0.002169 0.005946 
0.001319 8.347069 0.016671 
4.172321 4.157321 8.669898 
PRIMCOORD
93 1
Li	      2.22729      4.34162      0.16707         0.160935     -0.163727     -0.196830
Li	      4.31622      6.40868      4.41070         0.135454      0.043035     -0.049149
Li	      2.22037      0.08459      0.17440        -0.086096      0.178155     -0.351247
Li	      4.31486      2.25941      4.40243         0.090215     -0.357797     -0.188446
Li	      6.37108      4.25773      0.03278         0.083219      0.157673      0.219676
Li	      8.50386      6.38298      4.44213         0.012206     -0.000701     -0.019983
Li	      6.36048      0.16751      0.02549         0.149879     -0.254151      0.015753
Li	      8.50354      2.28393      4.43452         0.008130     -0.384510     -0.082763
Li	     10.62361      4.25693      0.04496        -0.228846      0.072589      0.334229
Li	     12.71067      6.40812      4.45412        -0.406625     -0.051966      0.257439
Li	     10.64119      0.16728      0.04165        -0.053927     -0.110501      0.161416
Li	     12.71078      2.25612      4.44711        -0.392310     -0.252571      0.183415
Li	      4.26517      4.25376      2.19878         0.107718      0.052582      0.009837
Li	      6.39099      6.37353      6.64039        -0.176075      0.011973     -0.164241
Li	      4.25201      8.50960      2.23838         0.058885     -0.262283      0.231226
Li	      6.39044     10.63220      6.64951        -0.045395     -0.283953     -0.074040
Li	      8.50259      4.25327      2.18404        -0.020932      0.138312      0.067330
Li	     10.62980      6.36338      6.63797         0.078528     -0.022562     -0.057734
Li	      8.49721      8.50997      2.22467        -0.053428     -0.230428      0.296366
Li	     10.63189     10.64117      6.64624         0.071481     -0.367060      0.121637
Li	     12.75744      4.25180      2.12845        -0.668002      0.199081     -0.043450
Li	     14.88421      6.37418      6.75317        -0.566043     -0.019795     -0.279605
Li	     12.77173      8.50950      2.24261        -0.628848     -0.415081     -0.029052
Li	     14.88540     10.62806      6.75892        -0.798919     -0.290397     -0.349053
Ti	      2.11079      2.12264      2.19762         2.071376      1.065455      0.294760
Ti	      4.28777      4.24583      6.67147         1.329040      0.773872     -0.878660
Ti	      2.11045      6.38489      2.20563         1.324354     -0.219208      0.617484
Ti	      4.29271      8.50209      6.68574         1.305637     -0.027122     -0.929925
Ti	      6.37322      2.12683      2.23585        -0.282322      0.748667     -0.140802
Ti	      8.50755      4.24508      6.65278        -0.190935      0.681809     -0.899880
Ti	      6.37448      6.37916      2.24384        -0.093024      0.023514     -0.072012
Ti	      8.51413      8.50246      6.62837         0.171194      0.071625     -0.000348
Ti	     10.64296      2.09386      2.22987        -0.224125      1.196783     -0.092651
Ti	     12.74215      4.24460      6.65985        -0.664244      0.651507     -1.265553
Ti	     10.64383      6.41059      2.23665        -0.311597     -0.235348      0.182941
Ti	     12.71630      8.50104      6.68790        -0.851129     -0.113095      0.246955
Ti	      0.09415      2.20707      0.17718         0.987848     -0.130867     -1.526595
Ti	      2.22227      4.25106      4.39429         1.256166      0.254350     -0.361945
Ti	      0.01056      6.39354      0.01380         2.190663     -0.034045      0.936966
Ti	      2.13050      8.50785      4.40880         2.479447     -0.105439      0.022038
Ti	      4.24438      2.12569      0.01652         0.682573      1.186843      0.854778
Ti	      6.40920      4.24965      4.43813         0.240616      0.741737     -0.087904
Ti	      4.24482      6.39025      0.02380         0.989955     -0.285980      1.010615
Ti	      6.42286      8.50778      4.44504         0.287666     -0.277913     -0.095932
Ti	      8.58196      2.18214      0.16678        -0.574068      0.458132     -1.324995
Ti	     10.56185      4.25050      4.40235        -0.470813      0.432149     -0.123789
Ti	      8.58394      6.49919      0.17457        -0.672591     -1.318981     -0.842315
Ti	     10.60548      8.50656      4.42862        -0.503660     -0.608351      0.589963
O	      2.21181      2.21410      0.17045         0.329478     -0.052130     -0.594515
O	      4.23654      4.25048      4.48288        -0.000776      0.179899      0.272218
O	      2.21331      6.46854      0.17861         0.302233     -0.572897     -0.601450
O	      4.21068      8.50718      4.49168         0.530248     -0.039627      0.383760
O	      6.38180      2.12148      0.03103         0.171673      0.512795      1.167943
O	      8.49811      4.25038      4.45391         0.091853      0.161812      0.332341
O	      6.38203      6.39319      0.03984         0.141439      0.285196      1.319089
O	      8.51505      8.50708      4.41364        -0.245099     -0.118787      0.510789
O	     10.62641      2.12542      0.01618        -0.555358      0.525447      1.139902
O	     10.62703      6.38884      0.02268        -1.008455      0.289597      0.812578
O	     12.81110      8.50637      4.48746        -1.733752     -0.104089      0.274363
O	      4.25667      2.13121      2.22184         0.416375      0.301491     -0.439011
O	      6.37855      4.24533      6.65616         0.212554      0.305820     -0.924398
O	      4.25771      6.37508      2.22924         0.353350      0.190063     -0.383351
O	      6.37133      8.50183      6.65337         0.203466      0.089772     -0.830027
O	      8.50865      2.13187      2.20288        -0.180868      0.345932      0.136764
O	     10.65489      4.24515      6.61774        -0.222310      0.292939     -0.769483
O	      8.50854      6.37356      2.21040        -0.243364      0.326573      0.291735
O	     10.64811      8.50212      6.65042        -0.029311     -0.127555     -0.587340
O	     12.74587      2.12024      2.22803        -1.890579      0.356609      0.508204
O	     14.86873      4.24526      6.53401        -1.491922      0.276290      0.008677
O	     12.74732      6.38345      2.23765        -1.490416      0.130112     -0.053418
O	     14.88834      8.50145      6.54952        -1.598716     -0.004360     -0.145035
O	      0.24845      0.16815      0.00644        -1.088511     -0.191443      0.649963
O	      0.24438      4.25926      0.01175        -1.025530      0.245072      0.941211
O	      4.24686      0.16829      0.01364         0.190721     -0.558086      0.524429
O	      6.39396      2.28483      4.43832        -0.013978     -0.792647     -0.340932
O	      4.32936      4.34042      0.17965        -0.489594     -0.368324     -1.316143
O	      6.39385      6.38225      4.44539        -0.006204     -0.049691     -0.569684
O	      8.51250      0.16714      0.02395         0.471293     -0.134232      1.095969
O	     10.62850      2.14201      4.41941         0.020875      0.940711     -0.311040
O	      8.59980      4.34046      0.16682        -0.073845     -0.443018     -0.872058
O	     10.62837      6.35829      4.42741         0.053354     -0.225135     -0.515386
O	      2.09698      4.25321      2.28955         0.642125      0.244346      0.747685
O	      4.24877      6.37345      6.64809         0.658729      0.110149      0.345238
O	      2.12578      8.51025      2.27146         0.699529     -0.825361      0.464578
O	      4.24942     10.63243      6.65723         0.720781     -1.019590     -0.698829
O	      6.37417      4.25316      2.23930         0.146526      0.253471      0.814332
O	      8.51672      6.37784      6.65053        -0.245116      0.184459     -0.077575
O	      6.37024      8.50978      2.25104         0.087174     -0.830414      0.352419
O	      8.51678     10.62706      6.65792        -0.225563     -1.033507     -0.552736
O	     10.66622      4.25252      2.26912         0.116968      0.215994      0.630390
O	     12.75927      6.39213      6.65369        -0.008464      0.356516      0.353329
O	     10.64730      8.50926      2.22176         0.029710     -1.130341      0.251730
O	     12.75972     10.61128      6.66104        -0.031952     -0.815842      0.126847
