# total energy = -683.94756880 eV
 
CRYSTAL
PRIMVEC
12.569672 -0.002180 0.005975 
0.001325 8.387986 0.016753 
4.192773 4.177700 8.712398 
PRIMCOORD
93 1
Li	      2.26974      4.40477      0.21142         0.209005     -0.205445     -0.243801
Li	      4.35863      6.47166      4.45405         0.178673      0.053486     -0.062321
Li	      2.26273      0.10590      0.21882        -0.089504      0.229793     -0.437013
Li	      4.35726      2.32273      4.44578         0.119400     -0.445154     -0.238279
Li	      6.43370      4.29958      0.03311         0.089636      0.192276      0.291498
Li	      8.58743      6.44571      4.48579         0.007624      0.003581     -0.022332
Li	      6.42300      0.21027      0.02581         0.197693     -0.326531      0.024062
Li	      8.58712      2.34749      4.47819        -0.001148     -0.491781     -0.095398
Li	     10.72801      4.29877      0.04539        -0.297519      0.080674      0.413508
Li	     12.83560      6.47110      4.49790        -0.495652     -0.075113      0.331230
Li	     10.74577      0.21004      0.04214        -0.081641     -0.135848      0.208061
Li	     12.83572      2.31941      4.49091        -0.488613     -0.313873      0.231957
Li	      4.30708      4.29556      2.22039         0.135757      0.064473      0.023407
Li	      6.45380      6.43618      6.70565        -0.235463      0.017030     -0.212643
Li	      4.29380      8.59323      2.26039         0.078939     -0.333491      0.290210
Li	      6.45325     10.73669      6.71486        -0.057687     -0.357555     -0.101960
Li	      8.58614      4.29506      2.20550        -0.026599      0.179500      0.094788
Li	     10.73428      6.42591      6.70321         0.102954     -0.026681     -0.076223
Li	      8.58071      8.59361      2.24653        -0.062627     -0.298551      0.366061
Li	     10.73638     10.74576      6.71157         0.089388     -0.461102      0.151156
Li	     12.88282      4.29359      2.14937        -0.923015      0.243243     -0.054473
Li	     15.03050      6.43683      6.81954        -0.776149     -0.017634     -0.356319
Li	     12.89726      8.59313      2.26465        -0.881142     -0.530262     -0.041765
Li	     15.03169     10.73251      6.82535        -1.088133     -0.372931     -0.488289
Ti	      2.13155      2.14350      2.21922         2.904992      1.355508      0.327202
Ti	      4.32992      4.28756      6.73703         1.823683      1.100232     -1.013447
Ti	      2.13119      6.44764      2.22731         1.888700     -0.281639      0.703870
Ti	      4.33490      8.58564      6.75144         1.745972     -0.098190     -1.134682
Ti	      6.43586      2.14772      2.25782        -0.420631      0.993607     -0.155626
Ti	      8.59116      4.28680      6.71816        -0.222863      0.848706     -1.127684
Ti	      6.43713      6.44184      2.26589        -0.160786     -0.086942     -0.091228
Ti	      8.59780      8.58603      6.69352         0.051451      0.118077      0.118385
Ti	     10.74757      2.11444      2.25180        -0.237855      1.509506     -0.050734
Ti	     12.86738      4.28632      6.72531        -0.823050      0.812274     -1.512706
Ti	     10.74844      6.47359      2.25863        -0.465877     -0.249840      0.255674
Ti	     12.84128      8.58460      6.75363        -0.916050     -0.169269      0.289544
Ti	      0.11563      2.24924      0.22163         1.216534     -0.179336     -1.949332
Ti	      2.24411      4.29284      4.43748         1.469625      0.321348     -0.443701
Ti	      0.01067      6.45637      0.01393         3.006284     -0.054311      1.275619
Ti	      2.15145      8.59146      4.45213         3.491692     -0.124775      0.018650
Ti	      4.28609      2.14658      0.01668         0.806268      1.427306      1.057917
Ti	      6.47219      4.29141      4.48175         0.254741      0.912274     -0.148199
Ti	      4.28653      6.45306      0.02403         1.164577     -0.384878      1.292124
Ti	      6.48599      8.59139      4.48873         0.241306     -0.306319     -0.087094
Ti	      8.68685      2.22407      0.21112        -0.633182      0.503733     -1.679426
Ti	     10.66566      4.29227      4.44562        -0.536921      0.525090     -0.170737
Ti	      8.68886      6.58354      0.21900        -0.749936     -1.575040     -1.038914
Ti	     10.70970      8.59017      4.47215        -0.523396     -0.755715      0.566105
O	      2.25411      2.25633      0.21483         0.402498     -0.075236     -0.732969
O	      4.27817      4.29226      4.52694         0.036551      0.214591      0.332630
O	      2.25561      6.55260      0.22307         0.437724     -0.709543     -0.727901
O	      4.25206      8.59079      4.53583         0.650414     -0.036396      0.458496
O	      6.44452      2.14233      0.03134         0.159994      0.632633      1.421609
O	      8.58162      4.29216      4.49768         0.111205      0.207895      0.407188
O	      6.44476      6.45602      0.04024         0.115881      0.358203      1.604154
O	      8.59873      8.59068      4.45701        -0.159593     -0.138954      0.664112
O	     10.73084      2.14631      0.01634        -0.726442      0.655346      1.442564
O	     10.73147      6.45163      0.02290        -1.518048      0.346752      1.055359
O	     12.93702      8.58997      4.53156        -2.632717     -0.121754      0.332505
O	      4.29851      2.15216      2.24368         0.529199      0.375993     -0.522558
O	      6.44123      4.28705      6.72158         0.299327      0.373239     -1.131260
O	      4.29956      6.43774      2.25115         0.449694      0.244271     -0.440766
O	      6.43395      8.58538      6.71876         0.299703      0.112875     -1.010261
O	      8.59227      2.15282      2.22452        -0.194116      0.440316      0.140974
O	     10.75960      4.28687      6.68277        -0.265629      0.373402     -0.948862
O	      8.59216      6.43620      2.23213        -0.279662      0.408979      0.358803
O	     10.75276      8.58568      6.71578        -0.138889     -0.159633     -0.792088
O	     12.87113      2.14108      2.24993        -2.679748      0.441537      0.677013
O	     15.01486      4.28698      6.59823        -2.034010      0.353347      0.003736
O	     12.87260      6.44619      2.25964        -2.060131      0.147632     -0.062566
O	     15.03467      8.58500      6.61388        -2.082854     -0.008771     -0.165633
O	      0.31251      0.21091      0.00662        -1.343344     -0.229019      0.777236
O	      0.30840      4.30110      0.01190        -1.259548      0.314443      1.118995
O	      4.28862      0.21107      0.01386         0.213069     -0.706987      0.676100
O	      6.45681      2.34840      4.48202        -0.013837     -0.952327     -0.398439
O	      4.39247      4.40356      0.22413        -0.581748     -0.351892     -1.622213
O	      6.45669      6.44497      4.48908        -0.000705     -0.058257     -0.684751
O	      8.59616      0.20990      0.02427         0.594648     -0.163165      1.369517
O	     10.73296      2.16306      4.46284         0.040387      1.168722     -0.361380
O	      8.70487      4.40360      0.21117        -0.065879     -0.528770     -1.055877
O	     10.73282      6.42079      4.47092         0.069779     -0.277835     -0.614394
O	      2.11760      4.29501      2.31205         0.857564      0.320497      0.899707
O	      4.29053      6.43609      6.71343         0.892241      0.156126      0.387050
O	      2.14666      8.59388      2.29378         0.937233     -1.064058      0.561315
O	      4.29118     10.73693      6.72266         0.987789     -1.331708     -0.899251
O	      6.43681      4.29496      2.26131         0.193451      0.279854      0.976551
O	      8.60043      6.44052      6.71589        -0.311126      0.207683     -0.073860
O	      6.43285      8.59341      2.27317         0.112303     -1.026701      0.414251
O	      8.60049     10.73150      6.72336        -0.265172     -1.283912     -0.735050
O	     10.77105      4.29431      2.29142         0.159813      0.271604      0.762193
O	     12.88467      6.45495      6.71908        -0.017695      0.435465      0.405223
O	     10.75194      8.59288      2.24359         0.041939     -1.462684      0.292150
O	     12.88513     10.71556      6.72651        -0.040967     -0.987310      0.143947
