# total energy = -680.34770606 eV
 
CRYSTAL
PRIMVEC
12.630987 -0.002190 0.006004 
0.001332 8.428903 0.016835 
4.213226 4.198079 8.754897 
PRIMCOORD
93 1
Li	      2.31249      4.46832      0.25619         0.259344     -0.253454     -0.287493
Li	      4.40126      6.53495      4.49761         0.214826      0.066028     -0.072959
Li	      2.30542      0.12741      0.26367        -0.091254      0.286083     -0.520922
Li	      4.39988      2.38657      4.48934         0.135614     -0.538559     -0.287575
Li	      6.49662      4.34162      0.03343         0.094537      0.219911      0.362003
Li	      8.67142      6.50875      4.52966         0.008629      0.003144     -0.027677
Li	      6.48582      0.25345      0.02615         0.250804     -0.400334      0.035451
Li	      8.67111      2.41157      4.52207        -0.010905     -0.597847     -0.109716
Li	     10.83293      4.34081      0.04584        -0.362195      0.078769      0.503728
Li	     12.96112      6.53439      4.54189        -0.578934     -0.099444      0.401312
Li	     10.85088      0.25321      0.04263        -0.112727     -0.160255      0.256245
Li	     12.96125      2.38322      4.53491        -0.578074     -0.373355      0.277696
Li	      4.34921      4.33757      2.24210         0.165650      0.076272      0.048514
Li	      6.51691      6.49912      6.77123        -0.296059      0.025047     -0.259519
Li	      4.33580      8.67727      2.28249         0.098701     -0.408123      0.353602
Li	      6.51636     10.84170      6.78053        -0.074653     -0.437673     -0.131883
Li	      8.67011      4.33707      2.22708        -0.038306      0.220087      0.126187
Li	     10.83925      6.48876      6.76876         0.127328     -0.030384     -0.099546
Li	      8.66463      8.67765      2.26849        -0.074761     -0.374973      0.436855
Li	     10.84138     10.85084      6.77720         0.103606     -0.569848      0.177368
Li	     13.00881      4.33558      2.17039        -1.227413      0.288032     -0.059608
Li	     15.17749      6.49978      6.88623        -1.034911     -0.015903     -0.433852
Li	     13.02339      8.67717      2.28680        -1.184527     -0.651156     -0.061555
Li	     15.17871     10.83747      6.89210        -1.434880     -0.450773     -0.650754
Ti	      2.15239      2.16446      2.24092         3.931151      1.653569      0.387389
Ti	      4.37226      4.32949      6.80292         2.422148      1.478115     -1.117245
Ti	      2.15204      6.51070      2.24910         2.615829     -0.327889      0.803346
Ti	      4.37729      8.66961      6.81747         2.336663     -0.177436     -1.362114
Ti	      6.49880      2.16873      2.27990        -0.559446      1.229742     -0.171127
Ti	      8.67518      4.32872      6.78385        -0.258157      1.056978     -1.388937
Ti	      6.50008      6.50485      2.28805        -0.240125     -0.153645     -0.068606
Ti	      8.68188      8.67000      6.75898         0.025822      0.140780      0.107147
Ti	     10.85267      2.13512      2.27382        -0.257519      1.875550     -0.038419
Ti	     12.99321      4.32824      6.79108        -0.969439      0.976129     -1.779420
Ti	     10.85356      6.53690      2.28072        -0.645456     -0.296534      0.311982
Ti	     12.96686      8.66855      6.81967        -1.057556     -0.227473      0.342200
Ti	      0.13732      2.29171      0.26650         1.420879     -0.214310     -2.370423
Ti	      2.26606      4.33482      4.48087         1.651451      0.380021     -0.531660
Ti	      0.01076      6.51952      0.01407         3.992229     -0.078110      1.662908
Ti	      2.17248      8.67549      4.49567         4.745501     -0.139356     -0.047290
Ti	      4.32802      2.16757      0.01684         0.906666      1.679951      1.263218
Ti	      6.53549      4.33339      4.52558         0.287387      1.098326     -0.204898
Ti	      4.32845      6.51617      0.02426         1.302733     -0.490346      1.620897
Ti	      6.54943      8.67541      4.53263         0.242381     -0.380302     -0.066314
Ti	      8.79235      2.26630      0.25590        -0.664532      0.551189     -1.991946
Ti	     10.76996      4.33425      4.48910        -0.578193      0.624355     -0.204159
Ti	      8.79438      6.66840      0.26384        -0.804551     -1.812602     -1.213005
Ti	     10.81445      8.67418      4.51589        -0.654611     -0.928647      0.663512
O	      2.29670      2.29888      0.25964         0.491834     -0.102394     -0.853171
O	      4.32001      4.33423      4.57121         0.076417      0.256228      0.393166
O	      2.29821      6.63716      0.26796         0.593895     -0.842404     -0.842980
O	      4.29364      8.67481      4.58019         0.787646     -0.031006      0.511266
O	      6.50754      2.16328      0.03165         0.115603      0.751667      1.660812
O	      8.66555      4.33413      4.54166         0.128659      0.258488      0.469101
O	      6.50778      6.51916      0.04064         0.082270      0.428240      1.897044
O	      8.68282      8.67470      4.50060        -0.161626     -0.151656      0.755439
O	     10.83579      2.16730      0.01649        -0.900720      0.779601      1.748534
O	     10.83642      6.51473      0.02312        -2.185581      0.401017      1.308144
O	     13.06353      8.67398      4.57588        -3.720670     -0.136634      0.410465
O	      4.34054      2.17320      2.26562         0.640463      0.457484     -0.596381
O	      6.50423      4.32898      6.78732         0.389777      0.439026     -1.329514
O	      4.34161      6.50069      2.27317         0.590197      0.295377     -0.482031
O	      6.49687      8.66935      6.78447         0.416669      0.146873     -1.177508
O	      8.67630      2.17387      2.24628        -0.203819      0.534312      0.123646
O	     10.86483      4.32880      6.74813        -0.326478      0.451647     -1.136680
O	      8.67619      6.49915      2.25395        -0.344978      0.496399      0.425426
O	     10.85792      8.66964      6.78146        -0.168327     -0.193054     -0.936966
O	     12.99701      2.16202      2.27194        -3.634990      0.535869      0.851999
O	     15.16171      4.32891      6.66276        -2.657044      0.443735     -0.005890
O	     12.99848      6.50923      2.28174        -2.791567      0.166809     -0.070773
O	     15.18170      8.66896      6.67856        -2.752030     -0.010645     -0.174017
O	      0.37720      0.25409      0.00679        -1.583639     -0.266010      0.882747
O	      0.37303      4.34316      0.01203        -1.478109      0.362818      1.278964
O	      4.33056      0.25425      0.01408         0.229615     -0.910044      0.830522
O	      6.51996      2.41248      4.52594        -0.010210     -1.137870     -0.456542
O	      4.45598      4.46711      0.26903        -0.680978     -0.285866     -1.913679
O	      6.51983      6.50801      4.53298         0.013144     -0.052870     -0.801845
O	      8.68024      0.25308      0.02460         0.694438     -0.207633      1.624897
O	     10.83793      2.18422      4.50649         0.059656      1.361737     -0.416145
O	      8.81056      4.46714      0.25595        -0.045041     -0.605260     -1.261250
O	     10.83778      6.48358      4.51464         0.083964     -0.298090     -0.714687
O	      2.13831      4.33702      2.33466         1.130817      0.395231      1.044045
O	      4.33249      6.49904      6.77908         1.163699      0.202234      0.410334
O	      2.16766      8.67793      2.31622         1.224715     -1.324344      0.642742
O	      4.33316     10.84194      6.78841         1.301983     -1.681756     -1.117384
O	      6.49976      4.33697      2.28342         0.234026      0.288505      1.118801
O	      8.68454      6.50351      6.78157        -0.381313      0.245553     -0.071797
O	      6.49576      8.67746      2.29540         0.135305     -1.201101      0.465671
O	      8.68460     10.83644      6.78911        -0.300877     -1.568582     -0.920929
O	     10.87638      4.33631      2.31382         0.197950      0.321648      0.871174
O	     13.01068      6.51807      6.78479        -0.026953      0.512430      0.462575
O	     10.85710      8.67692      2.26553         0.065254     -1.793236      0.338186
O	     13.01114     10.82036      6.79229        -0.043739     -1.151820      0.171526
