# total energy = -91.82271605 eV
 
CRYSTAL
PRIMVEC
-0.000021 4.127758 0.000023 
4.126930 0.000000 4.137926 
4.075314 -0.000040 -4.086341 
PRIMCOORD
16 1
Li	      4.13253      0.00049      0.02704        -0.002393     -0.003154      0.001301
Li	      6.13966      4.12719     -2.00100         0.004203      0.001407     -0.012569
Li	      4.10144      2.06443      2.04239        -0.011423     -0.002413     -0.017726
Li	      4.10020      2.06420     -1.99401         0.007827     -0.001665      0.015341
Mn	      8.18320      4.12754      0.05183        -0.061131      0.000235     -0.007707
Mn	      2.13793      2.06357      0.08268         0.158646      0.000863      0.043805
Ni	      6.06151      2.06349     -0.04353        -0.023894      0.000653     -0.024915
Ni	      6.16365      4.12746      2.08140        -0.007721      0.000601      0.025287
O	      4.02618      2.06391      0.02777        -0.050392     -0.000208      0.003149
O	      6.23730      4.12734      0.03146         0.035037      0.000753     -0.118257
O	      2.04630      2.06358     -1.95765         0.000268      0.000481      0.072039
O	      3.96585      4.12756     -2.18568         0.207445     -0.000026     -0.106961
O	      2.06793      2.06345      1.98131        -0.000882      0.001584     -0.093419
O	      4.23309      4.12763      2.23640        -0.204091     -0.000236      0.103278
O	      0.06341      2.06365      0.00706         0.090934      0.000443      0.003251
O	      1.96922      4.12745      0.02509        -0.142432      0.000683      0.114104
