# total energy = -670.98444843 eV
 
CRYSTAL
PRIMVEC
12.753618 -0.002211 0.006063 
0.001345 8.510737 0.016998 
4.254131 4.238837 8.839896 
PRIMCOORD
93 1
Li	      2.39890      4.59666      0.34701         0.357094     -0.337673     -0.376715
Li	      4.48714      6.66246      4.58536         0.301725      0.099044     -0.093368
Li	      2.39171      0.17105      0.35464        -0.081007      0.410482     -0.677921
Li	      4.48574      2.51576      4.57710         0.192487     -0.752474     -0.403501
Li	      6.62338      4.42634      0.03408         0.081931      0.271424      0.499243
Li	      8.84061      6.63574      4.61804         0.008440      0.011598     -0.034029
Li	      6.61238      0.34102      0.02683         0.363264     -0.566907      0.076378
Li	      8.84031      2.54125      4.61047        -0.049050     -0.829377     -0.144463
Li	     11.04431      4.42551      0.04674        -0.490893      0.063881      0.692850
Li	     13.21401      6.66188      4.63051        -0.748008     -0.157953      0.528821
Li	     11.06260      0.34078      0.04363        -0.171276     -0.216703      0.378634
Li	     13.21415      2.51235      4.62356        -0.771863     -0.491631      0.340119
Li	      4.43407      4.42221      2.28586         0.211144      0.075443      0.099748
Li	      6.64408      6.62593      6.90335        -0.431463      0.053152     -0.357767
Li	      4.42040      8.84658      2.32703         0.132404     -0.555970      0.477090
Li	      6.64351     11.05324      6.91283        -0.113479     -0.620270     -0.188523
Li	      8.83928      4.42169      2.27053        -0.056722      0.309672      0.212110
Li	     11.05074      6.61536      6.90083         0.169912     -0.030204     -0.131692
Li	      8.83370      8.84696      2.31276        -0.097625     -0.526696      0.603253
Li	     11.05291     11.06256      6.90944         0.114621     -0.811367      0.245580
Li	     13.26264      4.42017      2.21274        -2.081278      0.366554     -0.064272
Li	     15.47363      6.62660      7.02059        -1.746591     -0.009399     -0.575018
Li	     13.27749      8.84648      2.33142        -2.041929     -0.928684     -0.099484
Li	     15.47487     11.04893      7.02657        -2.368017     -0.614184     -1.054817
Ti	      2.19438      2.20670      2.28465         6.672025      2.328044      0.508820
Ti	      4.45756      4.41397      6.93565         4.062619      2.393544     -1.125877
Ti	      2.19402      6.63773      2.29298         4.842259     -0.437528      0.938209
Ti	      4.46271      8.83877      6.95049         4.059967     -0.344319     -1.774710
Ti	      6.62560      2.21105      2.32439        -0.751579      1.698646     -0.195422
Ti	      8.84444      4.41318      6.91622        -0.287639      1.662648     -1.882048
Ti	      6.62691      6.63177      2.33270        -0.504742     -0.344585     -0.046125
Ti	      8.85129      8.83917      6.89086         0.141573      0.138648      0.002627
Ti	     11.06444      2.17678      2.31818        -0.267667      2.700930     -0.058818
Ti	     13.24674      4.41269      6.92359        -1.211897      1.244954     -2.184007
Ti	     11.06533      6.66445      2.32522        -1.010871     -0.419676      0.392649
Ti	     13.21987      8.83768      6.95274        -1.276170     -0.378456      0.344376
Ti	      0.18130      2.37758      0.35753         1.718571     -0.159810     -3.247958
Ti	      2.31028      4.41941      4.56831         1.917647      0.477810     -0.690641
Ti	      0.01097      6.64672      0.01434         6.690412     -0.178190      2.620380
Ti	      2.21487      8.84477      4.58339         8.193839     -0.165208     -0.219550
Ti	      4.41246      2.20987      0.01717         1.117509      2.251553      1.604795
Ti	      6.66300      4.41794      4.61388         0.326436      1.515697     -0.392781
Ti	      4.41291      6.64331      0.02474         1.550834     -0.765083      2.471685
Ti	      6.67721      8.84469      4.62107         0.180002     -0.498770     -0.073645
Ti	      9.00521      2.35167      0.34671        -0.730243      0.640259     -2.115339
Ti	     10.98010      4.41882      4.57669        -0.553573      0.845671     -0.253494
Ti	      9.00729      6.83968      0.35482        -0.876181     -2.220384     -1.194386
Ti	     11.02546      8.84342      4.60400        -1.037527     -1.337957      0.990540
O	      2.38281      2.38489      0.35053         0.759140     -0.174822     -1.081704
O	      4.40430      4.41880      4.66041         0.129129      0.353492      0.530368
O	      2.38436      6.80782      0.35902         0.850219     -1.096648     -1.143644
O	      4.37743      8.84406      4.66956         1.110685     -0.023513      0.606852
O	      6.63452      2.20549      0.03227        -0.167672      0.967778      1.963101
O	      8.83463      4.41869      4.63028         0.069500      0.370254      0.570604
O	      6.63476      6.64636      0.04143        -0.014766      0.537337      2.336281
O	      8.85224      8.84395      4.58842        -0.335740     -0.177872      0.885979
O	     11.04721      2.20958      0.01681        -1.217029      0.992791      2.304120
O	     11.04787      6.64184      0.02358        -4.176592      0.488333      1.759823
O	     13.31842      8.84322      4.66517        -6.959853     -0.158132      0.615923
O	      4.42524      2.21561      2.30983         0.727390      0.637682     -0.817399
O	      6.63114      4.41344      6.91974         0.593280      0.582520     -1.785232
O	      4.42633      6.62753      2.31752         0.932958      0.411810     -0.492391
O	      6.62364      8.83850      6.91683         0.674900      0.211238     -1.513600
O	      8.84559      2.21629      2.29011        -0.027528      0.749321     -0.098424
O	     11.07683      4.41326      6.87980        -0.384968      0.620336     -1.600448
O	      8.84548      6.62595      2.29794        -0.463341      0.661780      0.505057
O	     11.06978      8.83880      6.91378        -0.205892     -0.266995     -1.202008
O	     13.25059      2.20420      2.31627        -6.249518      0.731988      1.267015
O	     15.45753      4.41337      6.79276        -4.342248      0.662855     -0.082258
O	     13.25211      6.63624      2.32626        -5.047260      0.205425     -0.051326
O	     15.47792      8.83812      6.80888        -4.515196     -0.026896     -0.163607
O	      0.50839      0.34165      0.00715        -2.019567     -0.312885      1.046929
O	      0.50412      4.42788      0.01233        -1.885380      0.390090      1.563272
O	      4.41507      0.34183      0.01452         0.231163     -1.457768      1.170690
O	      6.64720      2.54218      4.61441        -0.015445     -1.562319     -0.466399
O	      4.58422      4.59542      0.36010        -0.888602     -0.058073     -2.489439
O	      6.64704      6.63499      4.62143         0.054356      0.005169     -0.956429
O	      8.84962      0.34064      0.02524         0.901020     -0.264880      1.887467
O	     11.04940      2.22682      4.59442         0.135422      1.706078     -0.543132
O	      9.02378      4.59546      0.34676         0.034578     -0.757779     -1.739633
O	     11.04925      6.61008      4.60273         0.128967     -0.240819     -0.902173
O	      2.18003      4.42164      2.38021         1.918832      0.574916      1.249730
O	      4.41702      6.62584      6.91135         1.916259      0.274971      0.389243
O	      2.20996      8.84725      2.36141         2.008462     -1.936979      0.757211
O	      4.41770     11.05348      6.92086         2.136206     -2.487811     -1.654780
O	      6.62659      4.42159      2.32797         0.328397      0.281982      1.422665
O	      8.85398      6.63040      6.91389        -0.528284      0.334701     -0.068737
O	      6.62250      8.84678      2.34019         0.195755     -1.550198      0.586970
O	      8.85405     11.04788      6.92158        -0.354811     -2.198541     -1.285732
O	     11.08860      4.42091      2.35897         0.268539      0.345743      1.037236
O	     13.26454      6.64526      6.91718        -0.041836      0.612014      0.591506
O	     11.06893      8.84623      2.30974         0.143485     -2.489477      0.426852
O	     13.26501     11.03148      6.92482        -0.056541     -1.328391      0.292069
