# total energy = -665.08831496 eV
 
CRYSTAL
PRIMVEC
12.814933 -0.002222 0.006092 
0.001351 8.551654 0.017080 
4.274584 4.259216 8.882396 
PRIMCOORD
93 1
Li	      2.44257      4.66144      0.39306         0.402862     -0.377574     -0.427320
Li	      4.53039      6.72668      4.62957         0.336181      0.114166     -0.102475
Li	      2.43531      0.19317      0.40076        -0.072259      0.481650     -0.764173
Li	      4.52898      2.58112      4.62130         0.205202     -0.861539     -0.447929
Li	      6.68722      4.46900      0.03441         0.082595      0.291460      0.582231
Li	      8.92582      6.69971      4.66255         0.010697      0.014045     -0.042152
Li	      6.67611      0.38542      0.02716         0.426414     -0.663168      0.101206
Li	      8.92552      2.60685      4.65499        -0.060980     -0.955589     -0.157516
Li	     11.15076      4.46817      0.04719        -0.559198      0.046385      0.793504
Li	     13.34138      6.72610      4.67514        -0.821419     -0.193719      0.595276
Li	     11.16924      0.38518      0.04413        -0.206231     -0.241367      0.456033
Li	     13.34153      2.57767      4.66820        -0.859401     -0.563041      0.384560
Li	      4.47680      4.46483      2.30788         0.234468      0.079045      0.134737
Li	      6.70811      6.68979      6.96989        -0.507169      0.065271     -0.409847
Li	      4.46300      8.93185      2.34945         0.147877     -0.653012      0.538764
Li	      6.70754     11.15978      6.97946        -0.142181     -0.719381     -0.208898
Li	      8.92448      4.46431      2.29241        -0.069222      0.358117      0.256281
Li	     11.15726      6.67914      6.96735         0.198691     -0.030581     -0.165098
Li	      8.91884      8.93224      2.33506        -0.104958     -0.629620      0.676985
Li	     11.15945     11.16919      6.97604         0.123956     -0.933798      0.271439
Li	     13.39047      4.46278      2.23407        -2.662552      0.402929     -0.110353
Li	     15.62277      6.69048      7.08827        -2.246142     -0.004056     -0.643058
Li	     13.40547      8.93174      2.35389        -2.628352     -1.082279     -0.130023
Li	     15.62402     11.15543      7.09430        -3.001764     -0.698888     -1.305984
Ti	      2.21553      2.22797      2.30667         8.656277      2.726343      0.587071
Ti	      4.50053      4.45650      7.00250         5.344463      2.960507     -1.164100
Ti	      2.21517      6.70171      2.31508         6.537088     -0.508143      1.012086
Ti	      4.50572      8.92396      7.01748         5.340036     -0.457712     -1.937167
Ti	      6.68947      2.23235      2.34679        -0.892101      2.004681     -0.243743
Ti	      8.92969      4.45572      6.98289        -0.323436      1.957560     -2.238800
Ti	      6.69078      6.69569      2.35518        -0.677772     -0.456723     -0.062138
Ti	      8.93659      8.92436      6.95728         0.121623      0.153391     -0.009699
Ti	     11.17108      2.19776      2.34053        -0.334668      3.159250     -0.001599
Ti	     13.37442      4.45523      6.99032        -1.392577      1.448276     -2.406950
Ti	     11.17198      6.72868      2.34763        -1.159789     -0.450051      0.480013
Ti	     13.34728      8.92287      7.01975        -1.397267     -0.452930      0.411921
Ti	      0.20359      2.42097      0.40367         1.892187     -0.124671     -3.754593
Ti	      2.33254      4.46200      4.61234         2.116986      0.542223     -0.806120
Ti	      0.01109      6.71079      0.01448         8.530668     -0.261438      3.196682
Ti	      2.23623      8.93001      4.62756        10.554386     -0.174405     -0.402166
Ti	      4.45498      2.23117      0.01734         1.168281      2.615196      1.816738
Ti	      6.72723      4.46052      4.65835         0.335624      1.740974     -0.430671
Ti	      4.45545      6.70735      0.02498         1.645303     -0.914813      2.982346
Ti	      6.74157      8.92993      4.66560         0.125663     -0.571890     -0.017096
Ti	      9.11256      2.39482      0.39276        -0.751827      0.686417     -2.399613
Ti	     11.08594      4.46141      4.62080        -0.553045      0.942655     -0.322956
Ti	      9.11466      6.92608      0.40095        -0.925682     -2.355755     -1.323960
Ti	     11.13173      8.92866      4.64837        -1.191098     -1.578623      1.080548
O	      2.42634      2.42835      0.39661         0.817326     -0.203299     -1.257704
O	      4.44675      4.46139      4.70532         0.127324      0.405243      0.571766
O	      2.42790      6.89391      0.40518         0.949518     -1.230660     -1.329461
O	      4.41962      8.92931      4.71457         1.250593     -0.009843      0.655065
O	      6.69846      2.22675      0.03258        -0.299449      1.079553      2.141735
O	      8.91979      4.46129      4.67491         0.093386      0.442754      0.625801
O	      6.69871      6.71041      0.04182        -0.080946      0.581903      2.532983
O	      8.93757      8.92920      4.63264        -0.356313     -0.175781      0.958857
O	     11.15369      2.23089      0.01697        -1.328458      1.088622      2.589979
O	     11.15434      6.70586      0.02380        -5.649478      0.495614      1.946731
O	     13.44680      8.92846      4.71013        -9.238899     -0.160834      0.767944
O	      4.46790      2.23696      2.33209         0.875354      0.731086     -0.879022
O	      6.69505      4.45598      6.98645         0.727881      0.667221     -1.951447
O	      4.46899      6.69141      2.33985         1.105177      0.466622     -0.479622
O	      6.68748      8.92369      6.98350         0.839476      0.244196     -1.665816
O	      8.93084      2.23765      2.31218         0.003151      0.847101     -0.093941
O	     11.18358      4.45579      6.94611        -0.423597      0.718019     -1.766144
O	      8.93074      6.68982      2.32009        -0.505123      0.734819      0.569318
O	     11.17648      8.92400      6.98042        -0.215415     -0.304955     -1.340211
O	     13.37832      2.22545      2.33859        -8.131897      0.843859      1.466658
O	     15.60652      4.45592      6.85824        -5.604564      0.795045     -0.135872
O	     13.37984      6.70021      2.34868        -6.745800      0.220348     -0.028170
O	     15.62710      8.92330      6.87451        -5.791531     -0.034752     -0.183753
O	      0.57490      0.38605      0.00733        -2.241083     -0.318218      1.161619
O	      0.57059      4.47055      0.01248        -2.092550      0.391365      1.713523
O	      4.45762      0.38624      0.01474         0.226539     -1.755895      1.373412
O	      6.71127      2.60780      4.65897        -0.012186     -1.785423     -0.476712
O	      4.64896      4.66019      0.40627        -0.968723      0.053028     -2.770102
O	      6.71111      6.69894      4.66597         0.073191      0.019062     -1.026463
O	      8.93492      0.38503      0.02557         0.998286     -0.323163      2.163092
O	     11.15589      2.24829      4.63871         0.175990      1.895521     -0.609937
O	      9.13130      4.66023      0.39281         0.096304     -0.796749     -1.907259
O	     11.15574      6.67379      4.64709         0.136769     -0.207849     -0.978489
O	      2.20104      4.46426      2.40316         2.454579      0.662590      1.404097
O	      4.45959      6.68970      6.97796         2.432875      0.329064      0.338188
O	      2.23126      8.93253      2.38417         2.552856     -2.308066      0.844279
O	      4.46028     11.16002      6.98757         2.690334     -2.957557     -1.959011
O	      6.69045      4.46420      2.35041         0.376979      0.272160      1.529250
O	      8.93932      6.69431      6.98053        -0.597759      0.360559     -0.071352
O	      6.68633      8.93205      2.36275         0.225480     -1.752469      0.629941
O	      8.93940     11.15437      6.98829        -0.364139     -2.525765     -1.518760
O	     11.19548      4.46353      2.38171         0.325604      0.342474      1.138954
O	     13.39240      6.70931      6.98385        -0.043715      0.692587      0.597006
O	     11.17562      8.93149      2.33200         0.186429     -2.883556      0.479826
O	     13.39287     11.13781      6.99156        -0.046216     -1.521358      0.306997
