# total energy = -691.94306110 eV
 
CRYSTAL
PRIMVEC
12.254625 -0.001630 0.001499 
0.001614 8.185981 0.015756 
4.084848 4.076591 8.509813 
PRIMCOORD
93 1
Li	      6.13459      8.17174      8.48480        -0.008365     -0.004630     -0.030248
Li	      4.12710      6.13286      4.23354        -0.039697     -0.006910     -0.008991
Li	      6.14800      4.07811      8.38636         0.015353     -0.004886     -0.017294
Li	      4.12685      2.04084      4.22751        -0.039796      0.005192     -0.008763
Li	      6.12253      4.09374      0.02282         0.005111      0.002004     -0.009405
Li	      8.17216      6.14041      4.26600        -0.000127     -0.006229     -0.017523
Li	      6.11484      8.18701      0.04494        -0.008454     -0.002746      0.000825
Li	      8.17309     10.21882      4.27241         0.002472      0.000035     -0.015705
Li	     10.21414      4.09296      0.04453         0.004418      0.001908     -0.005183
Li	     12.21376      6.12884      4.23060         0.045832      0.006616     -0.008723
Li	     10.21119      8.18594      0.06950        -0.003011      0.000378      0.025094
Li	     12.21397      2.04236      4.22182         0.040204     -0.005412     -0.007350
Li	      4.08767      4.08989      2.15505        -0.015235      0.000636      0.007042
Li	      6.13702      6.13717      6.37836        -0.008215     -0.007574     -0.007618
Li	      4.11597      8.18295      2.18990        -0.025563     -0.000031      0.011170
Li	      6.13391     10.21249      6.38603        -0.003821      0.007709     -0.007386
Li	      8.17159      4.08865      2.11764        -0.007033      0.004795      0.001450
Li	     10.20700      6.13439      6.38894         0.005889     -0.003311      0.005479
Li	      8.17257      8.18188      2.13162        -0.005838     -0.000434      0.012013
Li	     10.20680     10.21470      6.39577         0.005576      0.001220      0.005087
Li	     12.25355      4.08748      2.15125         0.021687      0.003763      0.007507
Li	     14.29680      6.13068      6.52441        -0.000473      0.015500     -0.011572
Li	     12.22707      8.18229      2.18785         0.024617     -0.001118      0.027076
Li	     14.30152     10.21526      6.53178        -0.001046     -0.009229     -0.006305
Ti	      2.04320      2.07436      2.08127        -0.003320      0.087700     -0.015425
Ti	      4.11597      4.08448      6.42856         0.005926      0.006519     -0.106374
Ti	      2.04374      6.10615      2.08970         0.000141     -0.087768     -0.029075
Ti	      4.10004      8.17195      6.40867        -0.037618      0.003139     -0.127034
Ti	      6.12474      2.04576      2.13827         0.015727      0.005614     -0.044620
Ti	      8.18075      4.08138      6.36077        -0.005524     -0.001509     -0.006423
Ti	      6.12491      6.13387      2.14656         0.027261     -0.008274     -0.056919
Ti	      8.17595      8.17528      6.39006        -0.001230      0.003586     -0.040245
Ti	     10.21690      2.04551      2.13629        -0.012759     -0.008301     -0.029104
Ti	     12.21237      4.07960      6.42793        -0.003638      0.003033     -0.092168
Ti	     10.21691      6.13064      2.14497        -0.014177      0.013121     -0.037002
Ti	     12.23769      8.17482      6.40455         0.029262      0.000432     -0.057395
Ti	      0.00319      2.03873      0.00797        -0.000756     -0.009335      0.066896
Ti	     14.29621      4.08517      4.27539         0.018217     -0.001027      0.092822
Ti	     12.25890      6.14998      0.02137         0.000100     -0.001783      0.078234
Ti	      2.04261      8.18100      4.24008         0.010028     -0.001837      0.080959
Ti	      4.09207      2.04725      0.01600         0.010206     -0.000123      0.049961
Ti	      6.16127      4.08617      4.26087        -0.005271      0.001296      0.018762
Ti	      4.09223      6.14033      0.02413         0.009516      0.011433      0.045770
Ti	      6.15232      8.17979      4.27123        -0.011174     -0.000261      0.048568
Ti	     12.24614      6.11934      8.50991        -0.002942      0.022860      0.060777
Ti	     10.18242      4.08638      4.26032        -0.013126     -0.005931      0.033521
Ti	     12.24761     10.22083      8.51536        -0.009824     -0.028616      0.071408
Ti	     10.19334      8.17843      4.27399        -0.008436      0.006976      0.033788
O	      2.04479      2.02956      0.00831         0.006847      0.002594      0.018584
O	      4.03703      4.08594      4.31313         0.002243      0.003209      0.033017
O	      2.04624      6.15755      0.01674        -0.000359      0.010894      0.025540
O	      4.04567      8.18122      4.28760         0.012655     -0.006446      0.033261
O	      6.13097      2.04596      0.01802        -0.006721     -0.003084      0.004839
O	      8.17037      4.08645      4.23839         0.007057      0.000592      0.016468
O	      6.13150      6.14047      0.02651         0.000864      0.004178      0.000084
O	      8.17110      8.17903      4.26522        -0.003010     -0.001897      0.006555
O	     10.20868      2.04306      0.01301         0.002049     -0.014247      0.022414
O	     12.30335      4.08588      4.31212        -0.010000      0.000902      0.029063
O	     10.20927      6.14314      0.02178        -0.005177      0.010027      0.016263
O	     12.29895      8.17953      4.28260        -0.005606     -0.007101      0.030910
O	      4.07401      2.02683      2.13094         0.020189      0.018067     -0.052347
O	      6.11656      4.08252      6.38424         0.013275      0.001396     -0.024453
O	      4.07511      6.15207      2.13893         0.017803     -0.016701     -0.048165
O	      6.12368      8.17450      6.39852         0.010513      0.002077     -0.029000
O	      8.17201      2.04773      2.11975        -0.010744     -0.004606     -0.011343
O	     10.22500      4.08107      6.39156        -0.002834     -0.003168     -0.000506
O	      8.17261      6.13021      2.12579        -0.013184      0.006090     -0.000396
O	     10.21864      8.17509      6.39801         0.004096     -0.002631     -0.008930
O	     12.26495      2.03024      2.12970        -0.013426      0.021199     -0.049992
O	     14.29630      4.08138      6.30830        -0.006172     -0.003560     -0.034179
O	     12.26540      6.14679      2.14015        -0.011602     -0.017707     -0.062957
O	     14.29943      8.17370      6.33311        -0.013669     -0.001267      0.023489
O	     12.25982      8.18478      0.03516         0.018759     -0.003090     -0.029933
O	      4.09236      8.17275      8.51245         0.017448      0.003017     -0.034656
O	      8.16273      4.07801      8.50392         0.006179     -0.002451     -0.016580
O	      6.13708     10.22438      4.27669        -0.014809     -0.022045     -0.023314
O	      4.07777      4.09360      0.01277        -0.011288     -0.002394     -0.013470
O	      6.13574      6.13455      4.26826        -0.011875      0.015464     -0.023884
O	      8.17556      8.18739      0.02325        -0.012826     -0.009511     -0.027452
O	     10.20899     10.22235      4.27265         0.008646      0.001023     -0.019268
O	     12.25876      8.16851      8.50743        -0.012035      0.009992     -0.023268
O	     10.20771      6.13537      4.26542         0.010754      0.000437     -0.011872
O	      2.04229      4.08944      2.22110         0.014216      0.006360      0.047078
O	      4.07743      6.13543      6.39399         0.003752      0.023093      0.051522
O	      4.07774     10.21560      6.40852         0.008053     -0.030127      0.046363
O	      6.11193      4.08953      2.14918         0.003655      0.003612      0.009101
O	      8.17583      6.12504      6.39566         0.000525      0.014053      0.006777
O	      6.13090      8.18277      2.15368         0.001334     -0.001481      0.025177
O	      8.17616     10.22455      6.40322        -0.003202     -0.015479      0.009093
O	     10.23020      4.08807      2.14312        -0.011819     -0.003866      0.009763
O	     12.26028      6.13273      6.39782        -0.012123     -0.006146      0.036699
O	     10.21165      8.18082      2.15270         0.000431      0.007382      0.022185
O	     12.26044     10.21533      6.40298         0.000061      0.005157      0.041362
