# total energy = -658.73936071 eV
 
CRYSTAL
PRIMVEC
11.636862 -0.001646 0.002273 
0.001471 7.768283 0.015063 
3.879490 3.868694 8.081427 
PRIMCOORD
94 1
Li	      5.52930      7.36642      7.68374         0.751385      1.762468      0.161234
Li	      3.67997      5.52932      3.85876        -0.744530     -0.014148      0.153717
Li	      5.52853      3.67672      7.67752         0.536767     -0.185326      0.739357
Li	      3.68061      9.21971      3.86516        -0.631463      0.973843      0.399834
Li	      5.52583      3.69092      0.00835        -1.273112     -0.082178     -0.539285
Li	      7.36671      5.52940      3.75320         0.032235      0.020534      0.601916
Li	      9.21073      3.67593      7.67698         0.523411     -0.097843      0.496958
Li	      7.36631      1.84003      3.74598         0.028920     -0.930394      0.830341
Li	      9.21153      3.69076      0.03403         0.626159     -0.217667     -1.165219
Li	     11.06386      5.52913      3.85441         0.226502     -0.042005     -0.393489
Li	      9.21199      7.38078      0.03788         0.425930      1.018920     -1.058689
Li	     11.06483      9.21861      3.86224         0.208130      1.154559     -0.145934
Li	      3.67215      3.68723      1.93928        -0.350476     -0.069592      0.536201
Li	      5.48911      5.52500      5.78888         0.614708     -0.038609      0.184096
Li	      3.67280      7.37704      1.94487        -0.277255      0.949748     -0.019552
Li	      5.49011      9.21456      5.79702         0.587250      1.215324      0.041766
Li	      7.36936      3.68777      1.89605        -0.058619      0.039253      0.317612
Li	      9.25185      5.52607      5.79281        -0.425184      0.104543      0.440755
Li	      7.36635      7.37799      1.90111        -0.209986      0.972335     -0.162362
Li	      9.25254      9.21410      5.79984        -0.357954      1.082864      0.178620
Li	     11.06860      3.68697      1.91585         0.723846     -0.058869      0.068299
Li	     12.89626      5.52438      5.77468         1.146287     -0.033300      0.746998
Li	     11.07324      7.37673      1.92240         0.691000      0.790899     -0.488341
Li	     12.89666      9.21419      5.78102         1.021261      0.913968      0.312304
Ti	      1.84785      1.84319      1.92219        -4.190814     -2.674735      2.295572
Ti	      3.65188      3.68027      5.76750        -2.806708     -3.019359      0.138528
Ti	      1.84900      5.53271      1.93003        -3.825930     -0.020942      0.968482
Ti	      3.65215      7.37059      5.77362        -2.821126      1.283302     -0.737413
Ti	      5.51751      1.84205      1.93271         0.022091     -3.416991     -0.171074
Ti	      7.36956      3.67970      5.79752         0.531222     -0.366041      1.669330
Ti	      5.51758      5.53293      1.93932        -0.060575      0.573089     -0.495617
Ti	      7.37143      7.36938      5.80455         0.920064      0.587856      0.167042
Ti	      9.21689      1.83828      1.94468         1.003062     -2.869205     -0.753188
Ti	     11.08572      3.67981      5.76739        -0.296093     -3.065675      0.332794
Ti	      9.21778      5.53664      1.95100         1.042250      0.003251     -0.414884
Ti	     11.08691      7.36916      5.77575        -0.756478      1.434302     -0.533367
Ti	      0.00404      1.84769      0.00409        -3.769216     -6.296829      1.164665
Ti	     12.89456      3.68382      3.87391         3.095426     -3.194841     -0.346202
Ti	      0.00401      5.53568      0.01077        -3.315230      0.407793     -2.121005
Ti	     12.89658      7.37280      3.88171         3.399281      0.936498     -0.905070
Ti	      3.68536      1.84621      0.04794        -0.458417     -5.129652     -1.212697
Ti	      5.49780      3.68411      3.81458         0.020748     -0.602773      0.342378
Ti	      3.68629      5.53556      0.05574        -1.495926      0.397634     -3.614891
Ti	      5.49749      7.37535      3.82177         1.105127      2.508245     -0.233096
Ti	      7.36335      1.84696      0.00700         0.453532     -6.224136     -0.767071
Ti	      9.24585      3.68454      3.81829        -0.265238     -0.482142      1.181921
Ti	      7.36359      5.53596      0.01391        -0.715262      0.691765     -4.109206
Ti	      9.24501      7.37444      3.81871        -1.406257      2.556856      0.772796
O	      1.83819      1.84664      0.01298        -1.801579     -2.227822     -2.705140
O	      3.69776      3.68436      3.85107        -4.542405     -0.502165     -0.777355
O	      1.83846      5.53567      0.01956        -1.583581     -0.087054     -3.376732
O	      3.69767      7.37537      3.85696        -4.380889      0.477030     -1.609324
O	      5.53097      1.84627      0.01126        -1.181476     -1.489091     -3.036922
O	      7.36856      3.68428      3.94102        -0.135494     -0.073439     -2.944294
O	      5.53210      5.53540      0.01877        -0.486159      0.244984     -3.552411
O	      7.37081      7.37360      3.94783        -0.043708      0.990181     -3.228692
O	      9.21077      1.84667      0.02879         2.815282     -1.072041     -2.411224
O	     11.04358      3.68385      3.84709         2.390132     -0.641814     -2.537594
O	      9.21193      5.53492      0.03578         2.780686     -0.137726     -3.005783
O	     11.04283      7.37393      3.85472         1.979119      0.424165     -2.950626
O	      3.68367      1.84349      1.95113        -0.933080     -1.210251      1.791633
O	      5.57318      3.67975      5.72010        -2.292930     -0.555881      3.033716
O	      3.68431      5.53199      1.95818        -0.882932     -0.042732      1.606197
O	      5.57480      7.37001      5.72643        -2.152054      0.302755      3.272772
O	      7.37262      1.84176      1.92682         0.257477     -0.996131      0.891083
O	      9.16563      3.67936      5.72380         1.263925     -0.578427      3.296228
O	      7.37346      5.53343      1.93384         0.203244     -0.058480      1.195819
O	      9.16627      7.36926      5.72879         0.999974      0.356879      3.014265
O	     11.05246      1.84096      1.91646         3.766938     -0.967968     -0.702564
O	     12.89685      3.67902      5.79138         4.559299     -0.957866      2.078375
O	     11.05203      5.53304      1.92321         3.781966      0.007656     -0.656636
O	     12.89713      7.36897      5.79871         4.981857      0.094566      2.212531
O	      3.69518      3.67705      7.67108        -0.756148     -0.290041      2.779768
O	     12.89382      9.21830      3.86369         1.655278      3.105703      0.301664
O	      3.69580      7.36712      7.67916        -1.149433      4.976641      2.459271
O	     12.89322      5.52781      3.85619         1.460297     -0.166561      0.976199
O	      7.36967      3.67640      7.65369         0.906657     -0.417890      3.088482
O	      5.53224      1.83937      3.84042         0.138255     -4.400327      2.447171
O	      7.37127      7.36640      7.66104         1.259597      5.217911      2.581231
O	      5.53273      5.52902      3.84694         0.124586      1.044955      2.922590
O	     11.04314      3.67683      7.67440         1.155658     -0.327968      2.970559
O	      9.21181      1.84176      3.84065        -0.079065     -4.509991      2.265406
O	     11.04380      7.36677      7.68418         1.709661      5.424347      2.278601
O	      9.21249      5.52644      3.84810        -0.024594      1.101347      2.772635
O	      1.84770      3.68851      1.94315        -1.203033     -1.044553     -1.364132
O	      3.67481      5.52556      5.76884        -1.058345     -0.404143      1.044142
O	      1.84895      7.37793      1.95025        -1.321439      3.410743     -1.006742
O	      3.67556      9.21532      5.77571        -0.932834      3.166475      1.213138
O	      5.53000      3.68754      1.93371        -0.002556     -1.010407     -3.606210
O	      5.52999      7.37736      1.94065        -0.166069      4.359494     -2.884681
O	      9.20439      3.68758      1.94096        -0.178994     -1.087489     -3.869376
O	     11.06317      5.52438      5.77183        -0.042056     -0.559235      1.028996
O	      9.20563      7.37753      1.93899        -0.096104      4.489888     -3.341655
O	     11.06399      9.21495      5.77866         0.012324      3.375176      1.189755
