# total energy = -667.89082066 eV
 
CRYSTAL
PRIMVEC
11.698109 -0.001655 0.002285 
0.001478 7.809169 0.015142 
3.899908 3.889055 8.123961 
PRIMCOORD
94 1
Li	      5.58766      7.44417      7.76484         0.661436      1.486539      0.195078
Li	      3.71881      5.58768      3.89948        -0.656081     -0.014002      0.138287
Li	      5.58689      3.71552      7.75855         0.481296     -0.161118      0.657507
Li	      3.71946      9.31702      3.90596        -0.576843      0.868939      0.377627
Li	      5.58415      3.72988      0.00844        -1.075136     -0.101874     -0.512607
Li	      7.44447      5.58775      3.79281         0.028283      0.020769      0.535363
Li	      9.30794      3.71473      7.75801         0.481168     -0.087350      0.441281
Li	      7.44405      1.85945      3.78551         0.024263     -0.809995      0.720862
Li	      9.30875      3.72972      0.03439         0.550062     -0.203098     -1.047917
Li	     11.18063      5.58748      3.89509         0.205087     -0.037944     -0.346344
Li	      9.30921      7.45867      0.03828         0.387761      0.892514     -0.945866
Li	     11.18161      9.31590      3.90301         0.205425      1.016087     -0.120326
Li	      3.71091      3.72615      1.95974        -0.319103     -0.064516      0.491814
Li	      5.54705      5.58331      5.84997         0.542882     -0.029831      0.162852
Li	      3.71156      7.45491      1.96541        -0.249083      0.818032      0.004195
Li	      5.54804      9.31182      5.85820         0.507255      1.058774      0.025391
Li	      7.44713      3.72669      1.91607        -0.055082      0.024815      0.274977
Li	      9.34950      5.58439      5.85394        -0.362865      0.100378      0.383891
Li	      7.44410      7.45586      1.92117        -0.190833      0.851285     -0.141336
Li	      9.35020      9.31134      5.86105        -0.296443      0.938598      0.147584
Li	     11.18542      3.72588      1.93606         0.654632     -0.065823      0.083351
Li	     13.03237      5.58268      5.83563         1.022843     -0.031130      0.662201
Li	     11.19010      7.45458      1.94268         0.624397      0.707011     -0.413773
Li	     13.03276      9.31144      5.84204         0.918329      0.798147      0.271938
Ti	      1.86735      1.86264      1.94247        -3.672505     -2.257551      1.833378
Ti	      3.69043      3.71911      5.82837        -2.489569     -2.594150      0.018984
Ti	      1.86851      5.59110      1.95040        -3.359380     -0.060128      0.651089
Ti	      3.69070      7.44837      5.83455        -2.485373      1.110809     -0.737442
Ti	      5.57575      1.86150      1.95311         0.009167     -2.942097     -0.165810
Ti	      7.44734      3.71854      5.85871         0.481481     -0.327274      1.422162
Ti	      5.57581      5.59132      1.95979        -0.070767      0.546577     -0.457674
Ti	      7.44923      7.44716      5.86582         0.848411      0.505831      0.092863
Ti	      9.31416      1.85767      1.96520         0.860123     -2.469818     -0.693790
Ti	     11.20271      3.71864      5.82826        -0.175182     -2.657454      0.188841
Ti	      9.31507      5.59508      1.97160         0.856448      0.032175     -0.389334
Ti	     11.20392      7.44694      5.83671        -0.586127      1.246481     -0.571412
Ti	      0.00407      1.86719      0.00413        -3.319390     -5.348969      0.721675
Ti	     13.03065      3.72270      3.91479         2.710953     -2.733366     -0.144292
Ti	      0.00405      5.59411      0.01089        -2.901310      0.358538     -2.003203
Ti	     13.03269      7.45061      3.92268         2.970750      0.816410     -0.633965
Ti	      3.72425      1.86569      0.04845        -0.491734     -4.355095     -0.997619
Ti	      5.55582      3.72298      3.85483        -0.030458     -0.543642      0.346076
Ti	      3.72519      5.59398      0.05633        -1.364106      0.341215     -3.126842
Ti	      5.55552      7.45319      3.86211         0.947169      2.137535     -0.213039
Ti	      7.44106      1.86645      0.00707         0.339218     -5.308757     -0.868889
Ti	      9.34343      3.72342      3.85859        -0.215650     -0.441903      1.067633
Ti	      7.44130      5.59439      0.01406        -0.641226      0.614171     -3.643348
Ti	      9.34259      7.45228      3.85902        -1.219043      2.185557      0.702462
O	      1.85758      1.86613      0.01312        -1.628679     -1.896071     -2.439360
O	      3.73679      3.72324      3.89171        -3.953813     -0.431416     -0.646659
O	      1.85786      5.59410      0.01977        -1.417063     -0.071689     -2.967976
O	      3.73669      7.45321      3.89766        -3.797629      0.423947     -1.327607
O	      5.58934      1.86575      0.01137        -1.006056     -1.266669     -2.635685
O	      7.44633      3.72316      3.98261        -0.109205     -0.056089     -2.532046
O	      5.59049      5.59382      0.01896        -0.470280      0.183828     -3.069070
O	      7.44861      7.45142      3.98950        -0.044836      0.863820     -2.775267
O	      9.30798      1.86616      0.02909         2.415033     -0.946887     -2.019162
O	     11.16013      3.72273      3.88770         2.116632     -0.550481     -2.194258
O	      9.30915      5.59334      0.03616         2.380678     -0.129802     -2.540577
O	     11.15938      7.45174      3.89540         1.728591      0.375380     -2.548654
O	      3.72255      1.86295      1.97172        -0.809510     -1.064334      1.495750
O	      5.63200      3.71859      5.78048        -1.985346     -0.475830      2.646454
O	      3.72318      5.59037      1.97884        -0.775888     -0.044286      1.377615
O	      5.63364      7.44779      5.78686        -1.863974      0.272140      2.830492
O	      7.45043      1.86119      1.94715         0.233625     -0.862573      0.724271
O	      9.26237      3.71819      5.78421         1.071890     -0.492444      2.871380
O	      7.45127      5.59183      1.95425         0.190048     -0.054609      0.966277
O	      9.26301      7.44704      5.78925         0.848637      0.320606      2.599346
O	     11.16911      1.86039      1.93669         3.292597     -0.844845     -0.598486
O	     13.03298      3.71785      5.85251         3.985108     -0.839560      1.787595
O	     11.16868      5.59143      1.94351         3.346652      0.000443     -0.556089
O	     13.03325      7.44675      5.85990         4.346589      0.098888      1.899045
O	      3.73418      3.71585      7.75204        -0.651255     -0.322302      2.509810
O	     13.02990      9.31559      3.90447         1.485019      2.656482      0.356605
O	      3.73482      7.44488      7.76021        -0.930598      4.297213      2.435471
O	     13.02929      5.58615      3.89689         1.330258     -0.121283      0.964638
O	      7.44744      3.71520      7.73447         0.837938     -0.358386      2.591941
O	      5.59062      1.85878      3.88095         0.150349     -3.795693      2.074397
O	      7.44907      7.44414      7.74189         1.153833      4.429365      2.385062
O	      5.59112      5.58738      3.88754         0.117674      0.907871      2.505512
O	     11.15969      3.71564      7.75539         0.999239     -0.351719      2.680734
O	      9.30903      1.86120      3.88118        -0.081340     -3.897169      1.899368
O	     11.16036      7.44452      7.76528         1.489754      4.656388      2.368165
O	      9.30971      5.58476      3.88871        -0.015582      0.959895      2.367269
O	      1.86720      3.72743      1.96365        -1.118873     -0.922225     -1.328698
O	      3.71361      5.58388      5.82973        -0.911833     -0.357105      0.971450
O	      1.86846      7.45580      1.97083        -1.219519      2.927963     -0.940972
O	      3.71434      9.31258      5.83666        -0.810666      2.744657      1.129683
O	      5.58836      3.72646      1.95411        -0.011190     -0.882469     -3.126167
O	      5.58837      7.45521      1.96114        -0.150932      3.737868     -2.443161
O	      9.30154      3.72650      1.96144        -0.159937     -0.953693     -3.364950
O	     11.17993      5.58268      5.83274        -0.038548     -0.481336      0.940243
O	      9.30280      7.45539      1.95945        -0.089211      3.851122     -2.863660
O	     11.18077      9.31222      5.83966         0.016069      2.932790      1.095397
