# total energy = -675.81607588 eV
 
CRYSTAL
PRIMVEC
11.759356 -0.001664 0.002297 
0.001486 7.850054 0.015221 
3.920327 3.909417 8.166495 
PRIMCOORD
94 1
Li	      5.64631      7.52232      7.84635         0.572578      1.230364      0.220656
Li	      3.75785      5.64635      3.94042        -0.574951     -0.016174      0.129191
Li	      5.64554      3.75453      7.84000         0.423497     -0.139345      0.581811
Li	      3.75851      9.41484      3.94697        -0.518876      0.769485      0.349118
Li	      5.64278      3.76903      0.00853        -0.900087     -0.105505     -0.472907
Li	      7.52262      5.64642      3.83263         0.026767      0.021613      0.469473
Li	      9.40567      3.75373      7.83946         0.433173     -0.076146      0.385818
Li	      7.52220      1.87897      3.82525         0.020166     -0.695723      0.620055
Li	      9.40648      3.76887      0.03475         0.477389     -0.187190     -0.935407
Li	     11.29802      5.64614      3.93599         0.185868     -0.034748     -0.303545
Li	      9.40695      7.53697      0.03868         0.352287      0.778766     -0.832400
Li	     11.29899      9.41370      3.94399         0.190593      0.884391     -0.094519
Li	      3.74987      3.76527      1.98032        -0.284041     -0.057906      0.450963
Li	      5.60529      5.64193      5.91140         0.478224     -0.020545      0.134188
Li	      3.75053      7.53317      1.98604        -0.220403      0.703229      0.026140
Li	      5.60629      9.40957      5.91970         0.439791      0.918227      0.013338
Li	      7.52532      3.76582      1.93618        -0.050211      0.010390      0.228225
Li	      9.44766      5.64302      5.91541        -0.310446      0.088563      0.331131
Li	      7.52225      7.53414      1.94134        -0.169636      0.736963     -0.131654
Li	      9.44836      9.40910      5.92259        -0.242204      0.811250      0.117829
Li	     11.30285      3.76499      1.95639         0.586704     -0.066135      0.086642
Li	     13.16919      5.64129      5.89689         0.901052     -0.027179      0.586265
Li	     11.30759      7.53284      1.96308         0.562289      0.619761     -0.354544
Li	     13.16958      9.40919      5.90337         0.822014      0.699304      0.236571
Ti	      1.88695      1.88220      1.96287        -3.165140     -1.888531      1.445617
Ti	      3.72917      3.75816      5.88956        -2.207508     -2.216257     -0.055672
Ti	      1.88813      5.64980      1.97088        -2.908800     -0.079451      0.411316
Ti	      3.72944      7.52657      5.89581        -2.217654      0.950442     -0.697596
Ti	      5.63428      1.88104      1.97361        -0.019095     -2.500280     -0.129335
Ti	      7.52553      3.75757      5.92022         0.421532     -0.288125      1.181871
Ti	      5.63435      5.65002      1.98036        -0.092906      0.505693     -0.380936
Ti	      7.52743      7.52534      5.92740         0.771587      0.423050      0.046749
Ti	      9.41194      1.87718      1.98583         0.753898     -2.102098     -0.626385
Ti	     11.32033      3.75768      5.88945        -0.068531     -2.268025      0.085082
Ti	      9.41287      5.65381      1.99229         0.731161      0.055515     -0.359972
Ti	     11.32154      7.52511      5.89798        -0.418734      1.050178     -0.558428
Ti	      0.00412      1.88679      0.00417        -2.926197     -4.452645      0.349435
Ti	     13.16745      3.76178      3.95589         2.365738     -2.310722      0.001520
Ti	      0.00409      5.65284      0.01100        -2.544657      0.310039     -1.874958
Ti	     13.16952      7.52882      3.96386         2.589297      0.707183     -0.423573
Ti	      3.76335      1.88528      0.04896        -0.502922     -3.623297     -0.799430
Ti	      5.61415      3.76208      3.89531        -0.075762     -0.482476      0.329358
Ti	      3.76429      5.65270      0.05692        -1.230294      0.286204     -2.665443
Ti	      5.61384      7.53144      3.90265         0.787428      1.792904     -0.226033
Ti	      7.51919      1.88605      0.00715         0.256864     -4.441144     -0.983080
Ti	      9.44152      3.76251      3.89910        -0.170686     -0.392221      0.945630
Ti	      7.51943      5.65312      0.01420        -0.551632      0.537984     -3.223871
Ti	      9.44067      7.53051      3.89953        -1.032156      1.837006      0.602555
O	      1.87708      1.88572      0.01326        -1.476903     -1.591924     -2.167971
O	      3.77602      3.76233      3.93257        -3.394969     -0.371866     -0.525438
O	      1.87736      5.65283      0.01998        -1.298451     -0.054824     -2.578940
O	      3.77592      7.53146      3.93858        -3.236340      0.368127     -1.072770
O	      5.64802      1.88534      0.01149        -0.836382     -1.071061     -2.250371
O	      7.52451      3.76225      4.02443        -0.094075     -0.042033     -2.144954
O	      5.64918      5.65255      0.01916        -0.433510      0.135333     -2.608349
O	      7.52680      7.52965      4.03138        -0.060416      0.749937     -2.345802
O	      9.40571      1.88575      0.02939         2.041788     -0.828274     -1.671786
O	     11.27731      3.76181      3.92851         1.848920     -0.468236     -1.869901
O	      9.40688      5.65205      0.03654         2.021638     -0.122835     -2.119969
O	     11.27654      7.52998      3.93629         1.495578      0.322177     -2.177469
O	      3.76163      1.88251      1.99242        -0.692900     -0.924551      1.252690
O	      5.69113      3.75763      5.84116        -1.696558     -0.407298      2.275050
O	      3.76227      5.64906      1.99962        -0.664914     -0.048954      1.173148
O	      5.69278      7.52598      5.84762        -1.597224      0.245883      2.404968
O	      7.52866      1.88073      1.96759         0.202868     -0.747077      0.583835
O	      9.35961      3.75723      5.84493         0.898554     -0.419371      2.467592
O	      7.52950      5.65054      1.97477         0.169744     -0.049990      0.777187
O	      9.36025      7.52521      5.85003         0.706177      0.284486      2.208098
O	     11.28637      1.87993      1.95703         2.858856     -0.742349     -0.488862
O	     13.16980      3.75689      5.91395         3.453262     -0.730291      1.521845
O	     11.28594      5.65014      1.96391         2.933926     -0.007686     -0.458969
O	     13.17007      7.52492      5.92142         3.755113      0.097863      1.602153
O	      3.77339      3.75486      7.83343        -0.542179     -0.341625      2.249576
O	     13.16669      9.41339      3.94546         1.322091      2.249261      0.387558
O	      3.77402      7.52304      7.84168        -0.730791      3.650012      2.332041
O	     13.16608      5.64479      3.93780         1.197841     -0.087460      0.925969
O	      7.52563      3.75421      7.81567         0.759673     -0.298093      2.128402
O	      5.64932      1.87829      3.92169         0.151167     -3.230948      1.729355
O	      7.52728      7.52230      7.82318         1.031004      3.681836      2.170000
O	      5.64983      5.64604      3.92836         0.105375      0.777063      2.106741
O	     11.27685      3.75465      7.83682         0.861797     -0.367062      2.404711
O	      9.40677      1.88074      3.92193        -0.083152     -3.320621      1.569789
O	     11.27753      7.52268      7.84680         1.279234      3.929619      2.353289
O	      9.40745      5.64340      3.92953        -0.007952      0.816386      1.986714
O	      1.88680      3.76656      1.98427        -1.025790     -0.803683     -1.255117
O	      3.75259      5.64250      5.89093        -0.780034     -0.309862      0.887383
O	      1.88808      7.53407      1.99153        -1.118968      2.487709     -0.857300
O	      3.75334      9.41035      5.89794        -0.702002      2.361744      1.036667
O	      5.64703      3.76559      1.97463        -0.023580     -0.755150     -2.659415
O	      5.64704      7.53349      1.98173        -0.141566      3.165785     -2.029730
O	      9.39919      3.76562      1.98203        -0.128037     -0.809524     -2.886915
O	     11.29730      5.64129      5.89398        -0.025541     -0.410005      0.843851
O	      9.40046      7.53366      1.98002        -0.073251      3.252323     -2.432752
O	     11.29815      9.40998      5.90096         0.024514      2.530476      0.987309
