# total energy = -682.59519069 eV
 
CRYSTAL
PRIMVEC
11.820602 -0.001672 0.002309 
0.001494 7.890940 0.015301 
3.940745 3.929778 8.209029 
PRIMCOORD
94 1
Li	      5.70528      7.60088      7.92830         0.482179      0.999217      0.229529
Li	      3.79710      5.70531      3.98157        -0.501547     -0.016466      0.122068
Li	      5.70450      3.79374      7.92188         0.359633     -0.119773      0.508204
Li	      3.79776      9.51317      3.98819        -0.464749      0.672427      0.318419
Li	      5.70171      3.80839      0.00861        -0.722137     -0.111942     -0.427171
Li	      7.60119      5.70539      3.87266         0.020116      0.017012      0.386976
Li	      9.50390      3.79294      7.92133         0.394808     -0.065001      0.338987
Li	      7.60077      1.89860      3.86520         0.015979     -0.590067      0.513596
Li	      9.50471      3.80824      0.03511         0.407606     -0.170488     -0.821034
Li	     11.41601      5.70510      3.97709         0.160239     -0.026195     -0.256464
Li	      9.50520      7.61569      0.03908         0.309931      0.669103     -0.724328
Li	     11.41700      9.51202      3.98518         0.174055      0.757619     -0.074018
Li	      3.78903      3.80459      2.00100        -0.257690     -0.059336      0.404745
Li	      5.66383      5.70086      5.97313         0.401614     -0.017423      0.118654
Li	      3.78969      7.61185      2.00678        -0.196873      0.595006      0.040064
Li	      5.66485      9.50784      5.98152         0.358505      0.782429      0.007639
Li	      7.60391      3.80515      1.95640        -0.046558     -0.005930      0.180258
Li	      9.54633      5.70195      5.97718        -0.244009      0.078433      0.286414
Li	      7.60082      7.61282      1.96161        -0.148391      0.631675     -0.128261
Li	      9.54704      9.50736      5.98444        -0.179143      0.693953      0.092972
Li	     11.42090      3.80431      1.97682         0.522686     -0.067563      0.084358
Li	     13.30672      5.70020      5.95848         0.792591     -0.024197      0.512989
Li	     11.42568      7.61151      1.98358         0.503709      0.537958     -0.301140
Li	     13.30713      9.50746      5.96502         0.730283      0.604264      0.203925
Ti	      1.90666      1.90185      1.98337        -2.670729     -1.565778      1.106215
Ti	      3.76812      3.79741      5.95107        -1.956607     -1.867066     -0.103260
Ti	      1.90785      5.70880      1.99146        -2.490848     -0.090061      0.235732
Ti	      3.76839      7.60517      5.95738        -1.988406      0.786701     -0.625746
Ti	      5.69312      1.90069      1.99422        -0.049722     -2.104080     -0.109059
Ti	      7.60413      3.79682      5.98205         0.360189     -0.265804      0.922144
Ti	      5.69319      5.70903      2.00104        -0.089345      0.467008     -0.335323
Ti	      7.60605      7.60393      5.98931         0.685809      0.369777     -0.014877
Ti	      9.51024      1.89678      2.00658         0.669843     -1.776765     -0.586378
Ti	     11.43856      3.79693      5.95096         0.016507     -1.901866      0.027647
Ti	      9.51117      5.71286      2.01310         0.627860      0.080803     -0.364004
Ti	     11.43978      7.60371      5.95958        -0.275269      0.853586     -0.492278
Ti	      0.00416      1.90650      0.00422        -2.605174     -3.618187      0.052506
Ti	     13.30497      3.80107      3.99721         2.068328     -1.922788      0.095004
Ti	      0.00414      5.71188      0.01112        -2.238255      0.258475     -1.714204
Ti	     13.30705      7.60746      4.00526         2.258242      0.597438     -0.270401
Ti	      3.80265      1.90497      0.04948        -0.496794     -2.944016     -0.665480
Ti	      5.67279      3.80137      3.93599        -0.128680     -0.423604      0.315984
Ti	      3.80361      5.71174      0.05751        -1.089382      0.232079     -2.209318
Ti	      5.67247      7.61010      3.94341         0.626682      1.493145     -0.231125
Ti	      7.59772      1.90575      0.00722         0.215734     -3.641607     -1.080755
Ti	      9.54013      3.80181      3.93982        -0.125137     -0.344936      0.822988
Ti	      7.59797      5.71216      0.01435        -0.462480      0.465377     -2.812238
Ti	      9.53927      7.60915      3.94026        -0.857607      1.532840      0.492258
O	      1.89670      1.90542      0.01340        -1.325842     -1.299579     -1.885716
O	      3.81545      3.80162      3.97363        -2.878513     -0.311338     -0.421810
O	      1.89697      5.71186      0.02019        -1.174770     -0.040807     -2.199619
O	      3.81536      7.61012      3.97972        -2.709053      0.313431     -0.843046
O	      5.70701      1.90503      0.01162        -0.668296     -0.892441     -1.873419
O	      7.60309      3.80154      4.06646        -0.074516     -0.023181     -1.780686
O	      5.70818      5.71158      0.01936        -0.384805      0.099415     -2.182316
O	      7.60542      7.60828      4.07349        -0.067078      0.635192     -1.940973
O	      9.50393      1.90544      0.02970         1.692778     -0.713246     -1.380971
O	     11.39508      3.80110      3.96954         1.588294     -0.390707     -1.568871
O	      9.50513      5.71109      0.03692         1.687376     -0.114741     -1.759824
O	     11.39430      7.60862      3.97740         1.267528      0.279774     -1.824898
O	      3.80091      1.90217      2.01323        -0.591372     -0.795479      1.067606
O	      5.75056      3.79688      5.90216        -1.431115     -0.341739      1.933465
O	      3.80157      5.70806      2.02051        -0.582141     -0.050604      0.976073
O	      5.75224      7.60458      5.90869        -1.354198      0.220128      2.011549
O	      7.60729      1.90037      1.98814         0.163876     -0.638857      0.473062
O	      9.45736      3.79647      5.90598         0.745633     -0.350905      2.089347
O	      7.60814      5.70955      1.99538         0.144860     -0.041539      0.617995
O	      9.45801      7.60381      5.91113         0.585388      0.249051      1.843567
O	     11.40424      1.89955      1.97747         2.476112     -0.643226     -0.377886
O	     13.30734      3.79612      5.97571         2.957013     -0.622857      1.273779
O	     11.40381      5.70914      1.98442         2.565984     -0.009250     -0.366054
O	     13.30763      7.60352      5.98327         3.201037      0.090769      1.332179
O	      3.81279      3.79408      7.91523        -0.433369     -0.347328      1.997439
O	     13.30420      9.51170      3.98667         1.169886      1.881459      0.394383
O	      3.81344      7.60161      7.92358        -0.547295      3.032250      2.176591
O	     13.30358      5.70374      3.97892         1.073751     -0.055563      0.858385
O	      7.60422      3.79341      7.89729         0.672677     -0.250866      1.755813
O	      5.70831      1.89791      3.96265         0.145159     -2.714503      1.412826
O	      7.60588      7.60086      7.90488         0.899947      2.997499      1.958783
O	      5.70883      5.70500      3.96938         0.098356      0.653368      1.755934
O	     11.39462      3.79387      7.91867         0.739745     -0.386096      2.148100
O	      9.50500      1.90038      3.96289        -0.090117     -2.786461      1.279145
O	     11.39531      7.60125      7.92876         1.086584      3.272052      2.259235
O	      9.50570      5.70234      3.97058        -0.010394      0.679159      1.650836
O	      1.90651      3.80590      2.00499        -0.940559     -0.689249     -1.164323
O	      3.79179      5.70143      5.95246        -0.657900     -0.268210      0.791695
O	      1.90780      7.61276      2.01233        -1.016022      2.079325     -0.772087
O	      3.79253      9.50863      5.95953        -0.598160      2.013987      0.936104
O	      5.70601      3.80491      1.99525        -0.028671     -0.644529     -2.229378
O	      5.70601      7.61217      2.00242        -0.128908      2.645146     -1.664632
O	      9.49736      3.80495      2.00274        -0.102814     -0.685621     -2.434669
O	     11.41529      5.70021      5.95553        -0.017209     -0.340509      0.745483
O	      9.49864      7.61233      2.00070        -0.057485      2.714914     -2.024243
O	     11.41615      9.50826      5.96259         0.031024      2.157121      0.882633
