# total energy = -688.30317386 eV
 
CRYSTAL
PRIMVEC
11.881849 -0.001681 0.002321 
0.001502 7.931826 0.015380 
3.961163 3.950140 8.251562 
PRIMCOORD
94 1
Li	      5.76455      7.67986      8.01067         0.398479      0.793011      0.229576
Li	      3.83655      5.76458      4.02294        -0.433092     -0.017837      0.109608
Li	      5.76376      3.83315      8.00419         0.305911     -0.095254      0.437541
Li	      3.83721      9.61201      4.02962        -0.412536      0.580276      0.278860
Li	      5.76095      3.84797      0.00870        -0.563847     -0.107703     -0.377399
Li	      7.68016      5.76466      3.91289         0.021478      0.014059      0.311226
Li	      9.60263      3.83234      8.00363         0.348136     -0.051111      0.291550
Li	      7.67973      1.91832      3.90536         0.018463     -0.488383      0.420957
Li	      9.60346      3.84780      0.03548         0.336760     -0.157564     -0.708317
Li	     11.53461      5.76438      4.01841         0.137636     -0.025471     -0.213096
Li	      9.60396      7.69481      0.03949         0.264840      0.564293     -0.617232
Li	     11.53562      9.61085      4.02658         0.151772      0.636838     -0.056165
Li	      3.82840      3.84412      2.02178        -0.221005     -0.055691      0.358341
Li	      5.72268      5.76008      6.03519         0.331631     -0.012348      0.103773
Li	      3.82907      7.69093      2.02763        -0.170059      0.494811      0.051200
Li	      5.72369      9.60663      6.04367         0.291904      0.650724     -0.000933
Li	      7.68291      3.84468      1.97672        -0.044555     -0.013879      0.127571
Li	      9.64551      5.76119      6.03928        -0.180352      0.070584      0.247113
Li	      7.67978      7.69191      1.98199        -0.125622      0.530059     -0.130837
Li	      9.64622      9.60614      6.04661        -0.123068      0.576108      0.072049
Li	     11.53955      3.84383      1.99736         0.462276     -0.062533      0.075514
Li	     13.44498      5.75943      6.02038         0.671181     -0.018750      0.443522
Li	     11.54439      7.69059      2.00419         0.445891      0.458887     -0.252220
Li	     13.44538      9.60624      6.02699         0.625662      0.508853      0.175292
Ti	      1.92647      1.92161      2.00398        -2.203805     -1.276748      0.798095
Ti	      3.80726      3.83686      6.01290        -1.713414     -1.542331     -0.162573
Ti	      1.92768      5.76812      2.01215        -2.104226     -0.092851      0.061587
Ti	      3.80754      7.68418      6.01927        -1.768364      0.636992     -0.566214
Ti	      5.75228      1.92043      2.01494        -0.079445     -1.731675     -0.099210
Ti	      7.68313      3.83627      6.04420         0.290673     -0.251623      0.685656
Ti	      5.75234      5.76835      2.02184        -0.083526      0.418914     -0.298167
Ti	      7.68507      7.68294      6.05153         0.585106      0.325652     -0.064108
Ti	      9.60905      1.91649      2.02742         0.582509     -1.468199     -0.523941
Ti	     11.55739      3.83637      6.01279         0.101584     -1.564434      0.027818
Ti	      9.60998      5.77222      2.03402         0.525397      0.100936     -0.365420
Ti	     11.55864      7.68271      6.02150        -0.136246      0.659006     -0.353677
Ti	      0.00421      1.92631      0.00426        -2.274583     -2.858566     -0.170807
Ti	     13.44321      3.84057      4.03874         1.806242     -1.570764      0.179451
Ti	      0.00418      5.77122      0.01123        -1.922581      0.208547     -1.512611
Ti	     13.44531      7.68649      4.04687         1.964918      0.507700     -0.131408
Ti	      3.84216      1.92476      0.04999        -0.477393     -2.332668     -0.569156
Ti	      5.73173      3.84086      3.97688        -0.171037     -0.362815      0.312369
Ti	      3.84312      5.77108      0.05811        -0.952616      0.193042     -1.792526
Ti	      5.73140      7.68916      3.98438         0.469113      1.220838     -0.216774
Ti	      7.67665      1.92554      0.00730         0.183827     -2.903556     -1.228161
Ti	      9.63925      3.84131      3.98076        -0.088027     -0.306297      0.689994
Ti	      7.67690      5.77151      0.01451        -0.365654      0.388022     -2.466523
Ti	      9.63837      7.68821      3.98119        -0.694947      1.257858      0.377899
O	      1.91640      1.92521      0.01354        -1.159106     -1.034584     -1.603477
O	      3.85510      3.84112      4.01492        -2.407268     -0.259631     -0.333888
O	      1.91669      5.77121      0.02040        -1.038614     -0.030122     -1.839648
O	      3.85500      7.68917      4.02106        -2.227282      0.262055     -0.650712
O	      5.76630      1.92482      0.01173        -0.529734     -0.729767     -1.515016
O	      7.68208      3.84104      4.10870        -0.048690      0.000009     -1.444138
O	      5.76748      5.77092      0.01956        -0.335904      0.063118     -1.783703
O	      7.68444      7.68733      4.11581        -0.060131      0.527915     -1.562760
O	      9.60268      1.92524      0.03001         1.391805     -0.602009     -1.111969
O	     11.51347      3.84060      4.01078         1.330129     -0.324764     -1.296123
O	      9.60389      5.77042      0.03731         1.384240     -0.104868     -1.439937
O	     11.51269      7.68767      4.01873         1.040287      0.237930     -1.503173
O	      3.84040      1.92193      2.03414        -0.496454     -0.672376      0.898359
O	      5.81031      3.83633      5.96348        -1.177116     -0.287140      1.618806
O	      3.84107      5.76737      2.04150        -0.495679     -0.043070      0.800384
O	      5.81200      7.68359      5.97008        -1.118506      0.189517      1.654307
O	      7.68631      1.92012      2.00880         0.127948     -0.538049      0.394353
O	      9.55562      3.83591      5.96734         0.609145     -0.289037      1.722595
O	      7.68719      5.76887      2.01612         0.118426     -0.032689      0.483198
O	      9.55628      7.68281      5.97254         0.479062      0.212916      1.492552
O	     11.52273      1.91929      1.99801         2.095706     -0.554427     -0.290760
O	     13.44560      3.83556      6.03780         2.487418     -0.525933      1.035941
O	     11.52229      5.76846      2.00504         2.197129     -0.009182     -0.290577
O	     13.44589      7.68251      6.04543         2.671207      0.080413      1.077315
O	      3.85240      3.83350      7.99747        -0.343527     -0.351614      1.742807
O	     13.44243      9.61052      4.02808         1.017477      1.545562      0.360811
O	      3.85305      7.68058      8.00590        -0.400157      2.465748      1.977948
O	     13.44180      5.76301      4.02027         0.948051     -0.032523      0.758903
O	      7.68323      3.83282      7.97934         0.582915     -0.223916      1.449209
O	      5.76763      1.91763      4.00383         0.145882     -2.229979      1.128047
O	      7.68490      7.67983      7.98700         0.766178      2.396536      1.724828
O	      5.76814      5.76427      4.01062         0.090975      0.537300      1.434769
O	     11.51301      3.83328      8.00094         0.612703     -0.417840      1.953730
O	      9.60375      1.92012      4.00406        -0.087700     -2.290967      1.022567
O	     11.51369      7.68022      8.01112         0.892130      2.690550      2.170475
O	      9.60447      5.76158      4.01182        -0.016353      0.555316      1.346812
O	      1.92631      3.84544      2.02582        -0.849101     -0.588593     -1.026808
O	      3.83117      5.76066      6.01430        -0.543032     -0.234897      0.688382
O	      1.92762      7.69185      2.03323        -0.906196      1.708084     -0.659184
O	      3.83195      9.60742      6.02146        -0.501081      1.698571      0.830194
O	      5.76530      3.84445      2.01598        -0.032619     -0.542825     -1.821469
O	      5.76529      7.69125      2.02323        -0.115925      2.169842     -1.322735
O	      9.59604      3.84448      2.02355        -0.077855     -0.572388     -2.001360
O	     11.53389      5.75943      6.01740        -0.012391     -0.289107      0.616081
O	      9.59732      7.69142      2.02149        -0.044325      2.219423     -1.639418
O	     11.53475      9.60704      6.02454         0.024545      1.824532      0.764393
