# total energy = -91.15152468 eV
 
CRYSTAL
PRIMVEC
0.000027 4.190214 -0.000014 
4.134655 0.000024 3.967265 
4.134769 0.000047 -3.967460 
PRIMCOORD
16 1
Li	      6.20125      4.18805     -1.97070        -0.000593      0.002780     -0.011080
Li	      4.13507      2.09475      1.96946         0.001340     -0.002217      0.010944
Li	      6.19994      4.18728      1.96926         0.002324      0.005731      0.011276
Li	      4.13665      2.09504     -1.97054        -0.003256     -0.003402     -0.010104
Mn	      8.23756      4.18932     -0.00073        -0.054028     -0.000965      0.000638
Mn	      2.09879      2.09364     -0.00044         0.055559      0.000958     -0.000499
Ni	      4.16262      4.18940     -0.00107        -0.041321     -0.001363      0.002133
Ni	      6.17390      2.09341     -0.00009         0.040400      0.002347     -0.002089
O	      4.07167      2.09422     -0.00061        -0.055924     -0.000317     -0.000389
O	      6.26472      4.18859     -0.00063         0.055704      0.001009      0.000352
O	      2.07146      2.09368     -1.90238        -0.008929     -0.000450      0.093698
O	      4.13012      4.18920     -2.06610         0.009685     -0.000870     -0.092667
O	      2.07194      2.09374      1.90168        -0.010623     -0.000528     -0.094191
O	      4.12972      4.18914      2.06472         0.011416     -0.000780      0.093556
O	      0.06139      2.09404     -0.00011         0.101763     -0.001360     -0.002543
O	      2.00574      4.18892     -0.00068        -0.103517     -0.000572      0.000965
