# total energy = -693.02788476 eV
 
CRYSTAL
PRIMVEC
11.943096 -0.001690 0.002333 
0.001509 7.972711 0.015459 
3.981582 3.970501 8.294096 
PRIMCOORD
94 1
Li	      5.82414      7.75923      8.09347         0.319059      0.605114      0.210100
Li	      3.87621      5.82417      4.06452        -0.366511     -0.017550      0.097952
Li	      5.82334      3.87277      8.08691         0.250103     -0.081671      0.362356
Li	      3.87688      9.71135      4.07127        -0.351227      0.487594      0.237434
Li	      5.82048      3.88774      0.00879        -0.418682     -0.102005     -0.318265
Li	      7.75954      5.82425      3.95334         0.019534      0.007339      0.245412
Li	      9.70188      3.87194      8.08635         0.297931     -0.043650      0.246112
Li	      7.75911      1.93815      3.94573         0.015532     -0.393498      0.340947
Li	      9.70273      3.88757      0.03584         0.269871     -0.128732     -0.593535
Li	     11.65384      5.82396      4.05995         0.111803     -0.021996     -0.169759
Li	      9.70322      7.77435      0.03990         0.221399      0.461050     -0.512937
Li	     11.65485      9.71018      4.06820         0.126375      0.521125     -0.040330
Li	      3.86796      3.88385      2.04268        -0.184490     -0.049615      0.307184
Li	      5.78181      5.81961      6.09756         0.269421     -0.009000      0.091151
Li	      3.86865      7.77042      2.04858        -0.147061      0.404115      0.051007
Li	      5.78286      9.70592      6.10614         0.234351      0.534029     -0.003748
Li	      7.76232      3.88442      1.99716        -0.036802     -0.018198      0.076673
Li	      9.74521      5.82074      6.10171        -0.134311      0.055331      0.206948
Li	      7.75916      7.77142      2.00247        -0.102114      0.433926     -0.132690
Li	      9.74593      9.70543      6.10911        -0.090289      0.477946      0.053934
Li	     11.65882      3.88356      2.01800         0.395419     -0.057596      0.056508
Li	     13.58394      5.81896      6.08261         0.563660     -0.019232      0.383271
Li	     11.66371      7.77008      2.02490         0.381745      0.382708     -0.207475
Li	     13.58435      9.70552      6.08929         0.532541      0.424874      0.157849
Ti	      1.94639      1.94147      2.02469        -1.769475     -1.002252      0.537039
Ti	      3.84662      3.87652      6.07505        -1.483817     -1.211152     -0.165163
Ti	      1.94760      5.82773      2.03295        -1.756857     -0.091744     -0.092342
Ti	      3.84690      7.76362      6.08149        -1.560862      0.471395     -0.422269
Ti	      5.81173      1.94028      2.03577        -0.102500     -1.368639     -0.070669
Ti	      7.76253      3.87592      6.10667         0.226599     -0.234397      0.524474
Ti	      5.81179      5.82796      2.04273        -0.068686      0.347569     -0.230483
Ti	      7.76451      7.76235      6.11408         0.490802      0.269945     -0.035379
Ti	      9.70837      1.93630      2.04837         0.506463     -1.178805     -0.414345
Ti	     11.67685      3.87602      6.07493         0.179898     -1.244868      0.066120
Ti	      9.70932      5.83188      2.05504         0.447295      0.115478     -0.345535
Ti	     11.67810      7.76211      6.08373         0.010646      0.476970     -0.172092
Ti	      0.00424      1.94622      0.00430        -1.909607     -2.167192     -0.492006
Ti	     13.58215      3.88026      4.08048         1.535015     -1.246297      0.260444
Ti	      0.00422      5.83087      0.01135        -1.603414      0.141950     -1.371634
Ti	     13.58428      7.76594      4.08870         1.659405      0.422613      0.010343
Ti	      3.88187      1.94466      0.05051        -0.425236     -1.796940     -0.557335
Ti	      5.79097      3.88056      4.01798        -0.196663     -0.292915      0.249143
Ti	      3.88284      5.83073      0.05871        -0.804439      0.168291     -1.482446
Ti	      5.79065      7.76864      4.02557         0.304448      0.955130     -0.238680
Ti	      7.75600      1.94545      0.00738         0.132763     -2.220912     -1.397053
Ti	      9.73887      3.88101      4.02190        -0.046040     -0.263429      0.538962
Ti	      7.75625      5.83116      0.01465        -0.273196      0.299092     -2.184973
Ti	      9.73799      7.76767      4.02234        -0.511471      0.992196      0.236634
O	      1.93620      1.94511      0.01368        -0.988012     -0.794820     -1.306689
O	      3.89494      3.88082      4.05642        -1.972830     -0.213078     -0.257610
O	      1.93649      5.83086      0.02061        -0.889943     -0.022984     -1.493799
O	      3.89485      7.76865      4.06262        -1.769646      0.207479     -0.489742
O	      5.82590      1.94471      0.01185        -0.393162     -0.578296     -1.186709
O	      7.76149      3.88074      4.15117        -0.024965      0.008619     -1.145666
O	      5.82710      5.83057      0.01977        -0.282570      0.030779     -1.415501
O	      7.76386      7.76679      4.15835        -0.051997      0.423308     -1.205466
O	      9.70193      1.94514      0.03032         1.110635     -0.491646     -0.859684
O	     11.63247      3.88029      4.05224         1.060241     -0.258767     -1.043282
O	      9.70315      5.83006      0.03769         1.110454     -0.100382     -1.146595
O	     11.63168      7.76713      4.06026         0.796837      0.193219     -1.198760
O	      3.88010      1.94179      2.05517        -0.411615     -0.552077      0.733688
O	      5.87036      3.87598      6.02512        -0.942010     -0.228465      1.312557
O	      3.88077      5.82698      2.06260        -0.407809     -0.039924      0.646639
O	      5.87207      7.76300      6.03178        -0.888062      0.157880      1.306821
O	      7.76576      1.93996      2.02956         0.097662     -0.439654      0.317050
O	      9.65438      3.87556      6.02901         0.490276     -0.231335      1.357949
O	      7.76664      5.82850      2.03696         0.088792     -0.028445      0.353229
O	      9.65505      7.76221      6.03427         0.374914      0.177754      1.149713
O	     11.64182      1.93913      2.01866         1.712899     -0.462254     -0.216416
O	     13.58457      3.87521      6.10021         2.060137     -0.429559      0.813341
O	     11.64138      5.82808      2.02576         1.820265     -0.008984     -0.233520
O	     13.58487      7.76191      6.10792         2.173491      0.059970      0.841576
O	      3.89223      3.87312      8.08013        -0.262947     -0.393453      1.605606
O	     13.58137      9.70985      4.06972         0.866419      1.239163      0.297346
O	      3.89289      7.75997      8.08865        -0.282970      2.004226      1.877525
O	     13.58074      5.82257      4.06182         0.823089     -0.006495      0.624000
O	      7.76265      3.87244      8.06181         0.490688     -0.192152      1.232337
O	      5.82723      1.93745      4.04520         0.136819     -1.785411      0.871108
O	      7.76433      7.75920      8.06956         0.622500      1.865262      1.505082
O	      5.82775      5.82385      4.05207         0.080087      0.435349      1.137575
O	     11.63200      3.87290      8.08363         0.499674     -0.435093      1.791851
O	      9.70302      1.93997      4.04545        -0.083757     -1.823261      0.794960
O	     11.63270      7.75960      8.09393         0.718176      2.166031      2.055153
O	      9.70373      5.82113      4.05329        -0.019030      0.442753      1.066311
O	      1.94622      3.88519      2.04676        -0.751920     -0.501196     -0.851614
O	      3.87078      5.82021      6.07647        -0.452182     -0.221607      0.556100
O	      1.94754      7.77135      2.05425        -0.787792      1.363580     -0.528306
O	      3.87154      9.70672      6.08369        -0.418599      1.422510      0.708542
O	      5.82488      3.88418      2.03682        -0.031062     -0.449021     -1.460640
O	      5.82488      7.77074      2.04414        -0.095026      1.736406     -1.027271
O	      9.69521      3.88422      2.04446        -0.056236     -0.463187     -1.597867
O	     11.65310      5.81896      6.07960        -0.006045     -0.249502      0.467537
O	      9.69652      7.77092      2.04238        -0.033468      1.761688     -1.284717
O	     11.65398      9.70633      6.08681         0.011272      1.511573      0.629405
