# total energy = -696.80720823 eV
 
CRYSTAL
PRIMVEC
12.004342 -0.001698 0.002345 
0.001517 8.013597 0.015539 
4.002000 3.990863 8.336630 
PRIMCOORD
94 1
Li	      5.88403      7.83902      8.17669         0.248590      0.440882      0.185045
Li	      3.91607      5.88406      4.10632        -0.299578     -0.016241      0.081217
Li	      5.88322      3.91260      8.17007         0.204284     -0.061867      0.290926
Li	      3.91674      9.81121      4.11314        -0.294333      0.390172      0.192084
Li	      5.88033      3.92771      0.00888        -0.308826     -0.088340     -0.262135
Li	      7.83933      5.88414      3.99399         0.022066      0.000122      0.194605
Li	      9.80165      3.91176      8.16950         0.229210     -0.032658      0.193101
Li	      7.83889      1.95807      3.98630         0.013125     -0.305228      0.270054
Li	      9.80249      3.92755      0.03621         0.216959     -0.105093     -0.473240
Li	     11.77367      5.88385      4.10169         0.085259     -0.017838     -0.136038
Li	      9.80300      7.85429      0.04031         0.184664      0.365717     -0.405894
Li	     11.77469      9.81003      4.11004         0.098401      0.413710     -0.033922
Li	      3.90774      3.92379      2.06369        -0.148484     -0.037262      0.245880
Li	      5.84127      5.87946      6.16027         0.216945     -0.009203      0.078722
Li	      3.90843      7.85032      2.06965        -0.116786      0.314795      0.038875
Li	      5.84232      9.80572      6.16892         0.184885      0.420393     -0.004472
Li	      7.84214      3.92436      2.01769        -0.031699     -0.012848      0.045366
Li	      9.84541      5.88059      6.16444        -0.101085      0.040322      0.167311
Li	      7.83895      7.85133      2.02307        -0.081069      0.339216     -0.121110
Li	      9.84614      9.80523      6.17193        -0.067271      0.374387      0.038770
Li	     11.77870      3.92350      2.03876         0.328217     -0.045304      0.041151
Li	     13.72362      5.87879      6.14516         0.460801     -0.016763      0.322114
Li	     11.78365      7.84998      2.04573         0.318233      0.301165     -0.167941
Li	     13.72404      9.80533      6.15190         0.440040      0.336075      0.138350
Ti	      1.96639      1.96144      2.04551        -1.382034     -0.774116      0.367861
Ti	      3.88617      3.91638      6.13752        -1.296476     -0.913694     -0.115085
Ti	      1.96762      5.88766      2.05385        -1.387661     -0.068911     -0.124489
Ti	      3.88646      7.84345      6.14402        -1.350516      0.333967     -0.284058
Ti	      5.87148      1.96023      2.05670        -0.087495     -1.040560     -0.070569
Ti	      7.84236      3.91577      6.16946         0.191357     -0.212289      0.434597
Ti	      5.87156      5.88789      2.06374        -0.055464      0.274086     -0.195102
Ti	      7.84435      7.84217      6.17695         0.392134      0.218728      0.010446
Ti	      9.80820      1.95621      2.06944         0.400888     -0.908156     -0.341330
Ti	     11.79692      3.91588      6.13740         0.205049     -0.965433      0.056472
Ti	      9.80915      5.89184      2.07617         0.354688      0.102638     -0.293584
Ti	     11.79818      7.84193      6.14629         0.077956      0.357227     -0.093430
Ti	      0.00429      1.96623      0.00435        -1.604211     -1.570775     -0.632168
Ti	     13.72181      3.92015      4.12244         1.278201     -0.963638      0.271206
Ti	      0.00427      5.89082      0.01147        -1.334211      0.110222     -1.207144
Ti	     13.72396      7.84579      4.13074         1.368343      0.340809      0.064056
Ti	      3.92179      1.96465      0.05102        -0.340407     -1.332926     -0.612500
Ti	      5.85052      3.92046      4.05931        -0.192420     -0.231110      0.171632
Ti	      3.92277      5.89069      0.05932        -0.608101      0.153337     -1.275446
Ti	      5.85018      7.84852      4.06696         0.196465      0.718225     -0.216049
Ti	      7.83575      1.96545      0.00745         0.080912     -1.613114     -1.212304
Ti	      9.83902      3.92092      4.06326        -0.010818     -0.220133      0.396166
Ti	      7.83600      5.89112      0.01480        -0.205741      0.228913     -1.757211
Ti	      9.83813      7.84755      4.06370        -0.374757      0.756168      0.136612
O	      1.95611      1.96511      0.01381        -0.801418     -0.586517     -1.020338
O	      3.93499      3.92073      4.09813        -1.543247     -0.173680     -0.179709
O	      1.95641      5.89081      0.02082        -0.728654     -0.027413     -1.154411
O	      3.93490      7.84854      4.10440        -1.352627      0.164234     -0.354850
O	      5.88581      1.96472      0.01198        -0.286076     -0.441982     -0.901717
O	      7.84129      3.92064      4.19386        -0.019250      0.020203     -0.878306
O	      5.88701      5.89053      0.01997        -0.228901      0.016552     -1.083071
O	      7.84369      7.84665      4.20111        -0.043322      0.323959     -0.908187
O	      9.80168      1.96514      0.03063         0.882562     -0.390650     -0.640885
O	     11.75209      3.92019      4.09390         0.814237     -0.201880     -0.793491
O	      9.80293      5.89002      0.03808         0.882514     -0.079612     -0.867070
O	     11.75129      7.84700      4.10201         0.591584      0.152455     -0.914619
O	      3.91999      1.96177      2.07630        -0.333490     -0.437804      0.587630
O	      5.93073      3.91583      6.08707        -0.736824     -0.173549      1.005122
O	      3.92067      5.88689      2.08381        -0.334549     -0.032070      0.518240
O	      5.93245      7.84283      6.09381        -0.686870      0.125462      0.976842
O	      7.84562      1.95991      2.05044         0.087820     -0.348176      0.240146
O	      9.75365      3.91541      6.09101         0.386301     -0.182247      1.024995
O	      7.84651      5.88843      2.05790         0.077539     -0.023578      0.253996
O	      9.75432      7.84203      6.09632         0.294125      0.143629      0.843395
O	     11.76154      1.95907      2.03942         1.346797     -0.374712     -0.147281
O	     13.72425      3.91505      6.16293         1.645618     -0.341101      0.631993
O	     11.76109      5.88801      2.04660         1.437251     -0.003268     -0.172882
O	     13.72455      7.84173      6.17072         1.715342      0.051508      0.650689
O	      3.93224      3.91294      8.16322        -0.179438     -0.360193      1.378289
O	     13.72102      9.80970      4.11157         0.707591      0.952528      0.251698
O	      3.93291      7.83976      8.17182        -0.183680      1.507280      1.619920
O	     13.72038      5.88244      4.10358         0.681234      0.006773      0.510606
O	      7.84246      3.91226      8.14471         0.383234     -0.163404      1.079689
O	      5.88716      1.95737      4.08680         0.112149     -1.386456      0.640871
O	      7.84417      7.83899      8.15253         0.476070      1.390498      1.311032
O	      5.88769      5.88374      4.09374         0.067271      0.351727      0.860246
O	     11.75161      3.91272      8.16675         0.411539     -0.362977      1.457353
O	      9.80280      1.95992      4.08705        -0.069833     -1.399514      0.586263
O	     11.75231      7.83939      8.17716         0.570383      1.609969      1.716033
O	      9.80351      5.88099      4.09497        -0.018889      0.345881      0.805362
O	      1.96624      3.92514      2.06781        -0.645503     -0.389447     -0.692652
O	      3.91057      5.88005      6.13895        -0.351640     -0.177052      0.415875
O	      1.96757      7.85127      2.07537        -0.667986      1.046877     -0.427039
O	      3.91136      9.80653      6.14625        -0.336561      1.126771      0.561941
O	      5.88477      3.92412      2.05776        -0.012710     -0.348686     -1.109824
O	      5.88477      7.85065      2.06516        -0.070800      1.330335     -0.751470
O	      9.79490      3.92416      2.06549        -0.039487     -0.365516     -1.226554
O	     11.77293      5.87879      6.14212        -0.005081     -0.200696      0.362730
O	      9.79622      7.85083      2.06338        -0.018353      1.350342     -0.969571
O	     11.77381      9.80615      6.14940         0.005798      1.187422      0.505570
