# total energy = -701.68652711 eV
 
CRYSTAL
PRIMVEC
12.126836 -0.001716 0.002369 
0.001532 8.095369 0.015697 
4.042837 4.031586 8.421698 
PRIMCOORD
94 1
Li	      6.00471      7.99981      8.34441         0.125845      0.181311      0.101646
Li	      3.99638      6.00475      4.19054        -0.164211     -0.010487      0.041082
Li	      6.00390      3.99285      8.33766         0.109233     -0.029019      0.145437
Li	      3.99708     10.01246      4.19751        -0.167621      0.196457      0.094419
Li	      6.00096      4.00828      0.00906        -0.138659     -0.053987     -0.139134
Li	      8.00014      6.00483      4.07591         0.011984     -0.002294      0.099518
Li	     10.00270      3.99200      8.33707         0.099819     -0.014711      0.094995
Li	      7.99969      1.99824      4.06806         0.008742     -0.144559      0.136207
Li	     10.00356      4.00811      0.03695         0.111776     -0.057858     -0.239863
Li	     12.01517      6.00454      4.18583         0.040429     -0.010578     -0.073992
Li	     10.00407      8.01540      0.04113         0.103437      0.181816     -0.203990
Li	     12.01622     10.01125      4.19434         0.045499      0.199842     -0.022398
Li	      3.98790      4.00427      2.10602        -0.076789     -0.023001      0.115346
Li	      5.96109      6.00006      6.28663         0.116562      0.004325      0.045792
Li	      3.98860      8.01135      2.11210        -0.061088      0.155458      0.023124
Li	      5.96216     10.00686      6.29546         0.097009      0.200710     -0.002700
Li	      8.00300      4.00486      2.05908        -0.012204     -0.012496     -0.000428
Li	     10.04737      6.00121      6.29089        -0.056184      0.023987      0.086334
Li	      7.99974      8.01237      2.06457        -0.038741      0.160719     -0.080342
Li	     10.04811     10.00635      6.29853        -0.037916      0.181295      0.017748
Li	     12.02031      4.00398      2.08058         0.181491     -0.024243      0.018093
Li	     14.00513      5.99938      6.27121         0.248859     -0.004372      0.181440
Li	     12.02536      8.01100      2.08769         0.182757      0.149716     -0.084233
Li	     14.00555     10.00646      6.27809         0.244107      0.163405      0.087533
Ti	      2.00673      2.00167      2.08746        -0.688824     -0.378961      0.117526
Ti	      3.96589      3.99672      6.26341        -0.773371     -0.429985     -0.090442
Ti	      2.00798      6.00843      2.09598        -0.705955     -0.020553     -0.126434
Ti	      3.96617      8.00433      6.27005        -0.785690      0.142051     -0.158310
Ti	      5.99193      2.00044      2.09889        -0.055253     -0.494876     -0.084170
Ti	      8.00322      3.99609      6.29601         0.092072     -0.105222      0.222656
Ti	      5.99200      6.00867      2.10607        -0.031111      0.147629     -0.150863
Ti	      8.00526      8.00303      6.30366         0.185150      0.097679      0.037567
Ti	     10.00939      1.99634      2.11189         0.202731     -0.428152     -0.230567
Ti	     12.03891      3.99620      6.26329         0.168026     -0.457300      0.019102
Ti	     10.01036      6.01270      2.11876         0.183474      0.059824     -0.213802
Ti	     12.04019      8.00278      6.27237         0.114999      0.155913     -0.023581
Ti	      0.00438      2.00656      0.00444        -0.879813     -0.628819     -0.368151
Ti	     14.00328      4.00057      4.20700         0.716799     -0.456936      0.184734
Ti	      0.00435      6.01166      0.01171        -0.718677      0.064382     -0.587712
Ti	     14.00547      8.00673      4.21547         0.747551      0.175651      0.076335
Ti	      4.00223      2.00496      0.05207        -0.187230     -0.558023     -0.464961
Ti	      5.97052      4.00088      4.14257        -0.141855     -0.126592      0.127089
Ti	      4.00324      6.01152      0.06054        -0.302373      0.094068     -0.711969
Ti	      5.97019      8.00951      4.15038         0.033150      0.340439     -0.072776
Ti	      7.99648      2.00577      0.00760         0.020371     -0.641442     -0.634835
Ti	     10.04083      4.00135      4.14660         0.007716     -0.121325      0.189722
Ti	      7.99673      6.01196      0.01511        -0.080552      0.104795     -0.847087
Ti	     10.03993      8.00852      4.14706        -0.151843      0.351433      0.053925
O	      1.99624      2.00542      0.01410        -0.405692     -0.246036     -0.476781
O	      4.01571      4.00116      4.18219        -0.752118     -0.086719     -0.049237
O	      1.99653      6.01165      0.02125        -0.378155     -0.015450     -0.528580
O	      4.01560      8.00952      4.18859        -0.642912      0.070948     -0.128981
O	      6.00654      2.00501      0.01222        -0.123933     -0.203060     -0.385749
O	      8.00213      4.00106      4.27988        -0.009411      0.011439     -0.404561
O	      6.00777      6.01135      0.02038        -0.122267     -0.002076     -0.469979
O	      8.00458      8.00761      4.28728        -0.023142      0.161860     -0.412267
O	     10.00274      2.00546      0.03126         0.460795     -0.194091     -0.297459
O	     11.99315      4.00060      4.17788         0.381992     -0.094231     -0.349974
O	     10.00400      6.01083      0.03886         0.454406     -0.042808     -0.405301
O	     11.99233      8.00796      4.18616         0.269166      0.069641     -0.404742
O	      4.00040      2.00200      2.11889        -0.174685     -0.213031      0.285689
O	      6.05238      3.99616      6.21194        -0.345923     -0.077890      0.436665
O	      4.00109      6.00765      2.12655        -0.174143     -0.012478      0.255084
O	      6.05414      8.00370      6.21881        -0.316371      0.062817      0.416770
O	      8.00655      2.00011      2.09250         0.044124     -0.175434      0.113306
O	      9.95373      3.99573      6.21596         0.168616     -0.082645      0.442637
O	      8.00745      6.00922      2.10011         0.034487     -0.010139      0.102389
O	      9.95441      8.00289      6.22137         0.133022      0.077496      0.349280
O	     12.00280      1.99925      2.08125         0.684801     -0.192154     -0.056578
O	     14.00577      3.99536      6.28935         0.846945     -0.160559      0.287312
O	     12.00233      6.00879      2.08857         0.728976     -0.004559     -0.076596
O	     14.00607      8.00259      6.29730         0.857961      0.029740      0.292500
O	      4.01291      3.99321      8.33066        -0.060406     -0.191492      0.687581
O	     14.00248     10.01092      4.19591         0.379402      0.447229      0.128497
O	      4.01358      8.00057      8.33944        -0.063889      0.628029      0.817384
O	     14.00181      6.00310      4.18776         0.374078      0.005831      0.256952
O	      8.00333      3.99251      8.31178         0.195211     -0.097022      0.620663
O	      6.00792      1.99751      4.17063         0.046621     -0.636561      0.266809
O	      8.00507      7.99979      8.31976         0.226010      0.591926      0.734456
O	      6.00846      6.00442      4.17771         0.021162      0.156824      0.366250
O	     11.99266      3.99298      8.33427         0.225774     -0.186401      0.734094
O	     10.00387      2.00012      4.17088        -0.032891     -0.644797      0.247674
O	     11.99338      8.00020      8.34489         0.285563      0.668478      0.878984
O	     10.00460      6.00162      4.17897        -0.010567      0.151138      0.348420
O	      2.00657      4.00566      2.11023        -0.375184     -0.190618     -0.339678
O	      3.99079      6.00067      6.26487        -0.159771     -0.082152      0.200191
O	      2.00794      8.01231      2.11794        -0.378137      0.492828     -0.201052
O	      3.99159     10.00769      6.27232        -0.157288      0.551619      0.297388
O	      6.00548      4.00462      2.09997        -0.005407     -0.155123     -0.470267
O	      6.00549      8.01169      2.10752        -0.032360      0.604546     -0.297958
O	      9.99582      4.00465      2.10785        -0.004144     -0.171293     -0.547165
O	     12.01441      5.99938      6.26811        -0.006582     -0.098074      0.174776
O	      9.99716      8.01187      2.10570        -0.001647      0.617454     -0.413622
O	     12.01532     10.00729      6.27553        -0.005717      0.569938      0.270148
