# total energy = -702.85846615 eV
 
CRYSTAL
PRIMVEC
12.188082 -0.001724 0.002381 
0.001540 8.136254 0.015776 
4.063255 4.051948 8.464231 
PRIMCOORD
94 1
Li	      6.06553      8.08082      8.42891         0.069172      0.084933      0.051649
Li	      4.03685      6.06556      4.23298        -0.085471     -0.005193      0.018025
Li	      6.06469      4.03329      8.42209         0.064805     -0.014108      0.073019
Li	      4.03756     10.11385      4.24001        -0.090162      0.100445      0.045872
Li	      6.06172      4.04887      0.00915        -0.071858     -0.025479     -0.075550
Li	      8.08114      6.06564      4.11718         0.004335     -0.003959      0.055647
Li	     10.10399      4.03242      8.42150         0.038888     -0.002879      0.042584
Li	      8.08069      2.01847      4.10926         0.006270     -0.073319      0.076019
Li	     10.10487      4.04870      0.03732         0.057976     -0.029367     -0.119933
Li	     12.13684      6.06534      4.22821         0.017331     -0.000967     -0.040066
Li	     10.10538      8.09656      0.04155         0.054620      0.090613     -0.102379
Li	     12.13790     10.11264      4.23681         0.021384      0.098569     -0.015875
Li	      4.02828      4.04483      2.12735        -0.038537     -0.010567      0.060078
Li	      6.02146      6.06082      6.35029         0.069747      0.002550      0.023569
Li	      4.02899      8.09248      2.13349        -0.031538      0.081112      0.014824
Li	      6.02254     10.10819      6.35922         0.058492      0.102066      0.000040
Li	      8.08405      4.04541      2.07993        -0.006363     -0.006284     -0.016733
Li	     10.14911      6.06198      6.35460        -0.044148      0.011110      0.045585
Li	      8.08075      8.09352      2.08547        -0.016990      0.077032     -0.058021
Li	     10.14986     10.10768      6.36231        -0.034536      0.088893      0.010871
Li	     12.14204      4.04452      2.10165         0.101344     -0.011449      0.010936
Li	     14.14694      6.06013      6.33472         0.127289     -0.003300      0.107599
Li	     12.14713      8.09212      2.10883         0.101581      0.075285     -0.041812
Li	     14.14738     10.10778      6.34167         0.125534      0.084746      0.056756
Ti	      2.02706      2.02194      2.10861        -0.348656     -0.188364      0.039721
Ti	      4.00604      4.03719      6.32684        -0.432552     -0.211698     -0.074962
Ti	      2.02832      6.06928      2.11721        -0.362541     -0.006623     -0.091364
Ti	      4.00634      8.08539      6.33355        -0.432921      0.064108     -0.104201
Ti	      6.05260      2.02070      2.12015        -0.035297     -0.239816     -0.090234
Ti	      8.08427      4.03656      6.35977         0.045289     -0.052327      0.093623
Ti	      6.05268      6.06951      2.12740        -0.016689      0.071551     -0.122253
Ti	      8.08632      8.08407      6.36749         0.091867      0.046123      0.006774
Ti	     10.11075      2.01655      2.13328         0.112295     -0.205287     -0.169617
Ti	     12.16081      4.03668      6.32672         0.108740     -0.225046     -0.006938
Ti	     10.11173      6.07359      2.14021         0.100714      0.029030     -0.158758
Ti	     12.16212      8.08382      6.33588         0.082584      0.072567     -0.023913
Ti	      0.00443      2.02688      0.00449        -0.473880     -0.278409     -0.151920
Ti	     14.14509      4.04108      4.24960         0.388208     -0.229016      0.104636
Ti	      0.00440      6.07254      0.01183        -0.381122      0.034376     -0.247663
Ti	     14.14730      8.08781      4.25816         0.396363      0.092006      0.051752
Ti	      4.04276      2.02526      0.05259        -0.092363     -0.251485     -0.287727
Ti	      6.03098      4.04139      4.18452        -0.088914     -0.065723      0.108302
Ti	      4.04378      6.07239      0.06115        -0.149960      0.052023     -0.396258
Ti	      6.03064      8.09061      4.19241        -0.009103      0.161594      0.014560
Ti	      8.07746      2.02608      0.00768         0.010362     -0.283014     -0.299222
Ti	     10.14252      4.04187      4.18859         0.009640     -0.064908      0.122371
Ti	      8.07772      6.07284      0.01526        -0.026617      0.049883     -0.392084
Ti	     10.14160      8.08962      4.18905        -0.059641      0.167836      0.064897
O	      2.01645      2.02573      0.01424        -0.205993     -0.107740     -0.219306
O	      4.05637      4.04167      4.22454        -0.374430     -0.038938     -0.010424
O	      2.01676      6.07252      0.02146        -0.190240     -0.008420     -0.238270
O	      4.05627      8.09063      4.23100        -0.316580      0.031370     -0.045556
O	      6.06737      2.02532      0.01235        -0.050766     -0.093623     -0.157128
O	      8.08317      4.04157      4.32323        -0.002986      0.008074     -0.196898
O	      6.06860      6.07222      0.02059        -0.061978     -0.003733     -0.200732
O	      8.08564      8.08869      4.33069        -0.013610      0.077085     -0.204139
O	     10.10403      2.02576      0.03158         0.239084     -0.094182     -0.155015
O	     12.11459      4.04112      4.22019         0.182608     -0.044975     -0.157425
O	     10.10530      6.07170      0.03925         0.233107     -0.022036     -0.204573
O	     12.11377      8.08905      4.22854         0.122182      0.033059     -0.184936
O	      4.04092      2.02227      2.14035        -0.086370     -0.106744      0.145947
O	      6.11367      4.03662      6.27484        -0.172850     -0.040794      0.192974
O	      4.04160      6.06849      2.14808        -0.083967     -0.003570      0.131482
O	      6.11545      8.08476      6.28178        -0.158339      0.030222      0.184203
O	      8.08763      2.02037      2.11369         0.014710     -0.089770      0.053325
O	     10.05452      4.03619      6.27889         0.081662     -0.041952      0.193626
O	      8.08854      6.07006      2.12138         0.003478     -0.006248      0.042332
O	     10.05522      8.08393      6.28437         0.070778      0.038847      0.144621
O	     12.12434      2.01950      2.10233         0.358343     -0.096729     -0.020745
O	     14.14760      4.03582      6.35304         0.438095     -0.080654      0.130384
O	     12.12387      6.06963      2.10973         0.382369     -0.004168     -0.034232
O	     14.14790      8.08362      6.36106         0.433376      0.013570      0.134709
O	      4.05355      4.03365      8.41502        -0.024413     -0.096713      0.341818
O	     14.14426     10.11230      4.23839         0.193309      0.218163      0.058882
O	      4.05423      8.08159      8.42390        -0.027094      0.285327      0.402775
O	     14.14360      6.06390      4.23016         0.193818      0.006008      0.123228
O	      8.08438      4.03294      8.39595         0.094706     -0.055818      0.334561
O	      6.06875      2.01775      4.21287         0.022529     -0.305580      0.106501
O	      8.08614      8.08079      8.40401         0.104593      0.268930      0.386084
O	      6.06929      6.06523      4.22001         0.007115      0.080075      0.150145
O	     12.11411      4.03342      8.41867         0.116848     -0.098548      0.370663
O	     10.10518      2.02038      4.21312        -0.016086     -0.317178      0.104950
O	     12.11483      8.08121      8.42940         0.142643      0.300352      0.432566
O	     10.10592      6.06240      4.22129        -0.004240      0.080907      0.149371
O	      2.02689      4.04622      2.13160        -0.204030     -0.094603     -0.160669
O	      4.03121      6.06144      6.32831        -0.070537     -0.043490      0.101807
O	      2.02827      8.09345      2.13939        -0.207348      0.241572     -0.093029
O	      4.03201     10.10904      6.33584        -0.069905      0.278731      0.159459
O	      6.06630      4.04517      2.12123        -0.009394     -0.068768     -0.198669
O	      6.06631      8.09282      2.12886        -0.018237      0.282991     -0.119337
O	     10.09705      4.04520      2.12919         0.008262     -0.083419     -0.248168
O	     12.13608      6.06014      6.33158        -0.006388     -0.048135      0.091745
O	     10.09840      8.09300      2.12703         0.005156      0.293847     -0.179699
O	     12.13700     10.10863      6.33909        -0.007962      0.277530      0.148566
