# total energy = -702.81582022 eV
 
CRYSTAL
PRIMVEC
12.310575 -0.001742 0.002404 
0.001556 8.218026 0.015935 
4.104092 4.092671 8.549299 
PRIMCOORD
94 1
Li	      2.08397      4.15140      0.04989        -0.042211     -0.061383     -0.058822
Li	      4.11841      6.18809      4.31849         0.097508      0.002013     -0.032388
Li	      2.08312      0.02209      0.04293        -0.038528      0.011297     -0.083079
Li	      4.11756      2.10014      4.30973         0.092373     -0.099573     -0.054371
Li	      6.18419      4.13067      0.00935         0.027458      0.024102      0.056885
Li	      8.24440      6.18818      4.20036         0.001535     -0.000402     -0.030050
Li	      6.20402      0.02121      0.04233        -0.070628      0.011529     -0.073803
Li	      8.24393      2.05925      4.19227         0.005935      0.066084     -0.042573
Li	     10.30900      4.13048      0.03808        -0.055558      0.028293      0.128299
Li	     12.38203      6.18787      4.31363        -0.026231      0.001222      0.030922
Li	     10.30797      0.04210      0.02646        -0.053813     -0.092120      0.100935
Li	     12.38155      2.09890      4.30647        -0.025179     -0.099389      0.006822
Li	      4.10965      4.12653      2.17032         0.031293      0.014265     -0.050608
Li	      6.14310      6.18326      6.47857        -0.011896      0.002525     -0.022995
Li	      4.11039      8.25596      2.17659         0.019136     -0.070677     -0.000436
Li	      6.14420     10.31240      6.48768        -0.001245     -0.093809      0.006453
Li	      8.24735      4.12714      2.12195         0.005643      0.009821     -0.031298
Li	     10.35414      6.18445      6.48297        -0.026999     -0.015697     -0.042817
Li	      8.24399      8.25701      2.12760         0.021453     -0.081633     -0.000951
Li	     10.35491     10.31187      6.49084        -0.038029     -0.087594     -0.004915
Li	     12.38733      4.12623      2.14410        -0.103210      0.011583     -0.001311
Li	     14.43274      6.18255      6.46269        -0.142750      0.000831     -0.063333
Li	     12.39252      8.25560      2.15144        -0.104954     -0.077094      0.037383
Li	     14.43318     10.31198      6.46978        -0.143553     -0.080380     -0.016375
Ti	      2.06800      2.06279      2.15120         0.374782      0.202418     -0.076393
Ti	      4.08697      4.11874      6.45465         0.441581      0.206617      0.003830
Ti	      2.06929      6.19189      2.15998         0.362270      0.007669      0.010250
Ti	      4.08727      8.24872      6.46149         0.446278     -0.048500      0.023547
Ti	      6.17488      2.06153      2.16298        -0.000063      0.253644     -0.121316
Ti	      8.24759      4.11810      6.48825        -0.036728      0.053548     -0.184660
Ti	      6.17496      6.19213      2.17037         0.015191     -0.100993     -0.070343
Ti	      8.24967      8.24737      6.49612        -0.090414     -0.031407     -0.107246
Ti	     10.31500      2.05728      2.17637        -0.070579      0.235386     -0.035093
Ti	     12.40649      4.11822      6.45453        -0.061099      0.207878     -0.063520
Ti	     10.31600      6.19628      2.18345        -0.087978     -0.060468     -0.003688
Ti	     12.40781      8.24713      6.46388        -0.041098     -0.046722     -0.051644
Ti	      0.00452      2.06783      0.00457         0.478575      0.192701      0.326991
Ti	      2.12026      4.12446      4.33304        -0.414768      0.200147     -0.081377
Ti	      0.00448      6.19522      0.01206         0.404413     -0.020034      0.402485
Ti	      2.12252      8.25294      4.34178        -0.423840     -0.067624     -0.038389
Ti	      4.12444      2.06617      0.05366         0.108811      0.189155      0.168578
Ti	      6.15282      4.12303      4.26905         0.048877      0.071093      0.088483
Ti	      4.12546      6.19506      0.06238         0.138266     -0.047365      0.225023
Ti	      6.15248      8.25406      4.27710        -0.029902     -0.176537      0.212486
Ti	      8.24063      2.06701      0.00783         0.024807      0.209516      0.386789
Ti	     10.34741      4.12352      4.27321         0.020711      0.068486      0.021880
Ti	      8.24090      6.19553      0.01557         0.063750     -0.050817      0.476964
Ti	     10.34647      8.25304      4.27368         0.106639     -0.174649      0.134551
O	      2.05719      2.06665      0.01453         0.181458      0.087595      0.266262
O	      4.13832      4.12331      4.30988         0.411245      0.051197      0.058785
O	      2.05749      6.19520      0.02189         0.181006      0.012618      0.303298
O	      4.13821      8.25408      4.31647         0.363550     -0.041226      0.085213
O	      6.18994      2.06623      0.01260         0.076947      0.079607      0.246414
O	      8.24647      4.12322      4.41056         0.017963     -0.010666      0.171667
O	      6.19120      6.19490      0.02100         0.077435      0.012333      0.280575
O	      8.24898      8.25210      4.41818         0.016379     -0.064553      0.148990
O	     10.30815      2.06669      0.03222        -0.271726      0.093061      0.099725
O	     12.35933      4.12275      4.30544        -0.187982      0.048062      0.178254
O	     10.30945      6.19435      0.04005        -0.276052      0.017874      0.143122
O	     12.35849      8.25246      4.31397        -0.127876     -0.036780      0.202397
O	      4.12254      2.06313      2.18359         0.075500      0.092118     -0.131513
O	      6.23717      4.11816      6.40160         0.140282      0.041766     -0.231086
O	      4.12326      6.19108      2.19148         0.070350      0.020173     -0.100735
O	      6.23899      8.24808      6.40868         0.126412     -0.036351     -0.207698
O	      8.25101      2.06118      2.15638        -0.040308      0.082506     -0.062475
O	     10.25764      4.11773      6.40574        -0.059950      0.042299     -0.239614
O	      8.25194      6.19269      2.16424        -0.039741      0.014986     -0.050122
O	     10.25834      8.24725      6.41132        -0.044338     -0.038649     -0.191083
O	     12.36927      2.06030      2.14480        -0.360594      0.108755      0.030992
O	     14.43340      4.11734      6.48137        -0.475197      0.087446     -0.142236
O	     12.36879      6.19225      2.15235        -0.334959      0.001496      0.050521
O	     14.43372      8.24692      6.48957        -0.472712     -0.016505     -0.130227
O	      0.03134      0.02247      0.03572         0.013276      0.103080     -0.347068
O	      2.11787      2.10029      4.30568        -0.212628     -0.232172     -0.075815
O	      0.03204      4.15219      0.04477         0.014378     -0.235423     -0.397760
O	      2.11876      6.18814      4.31322        -0.214785      0.005323     -0.118069
O	      4.14360      0.02174      0.01626        -0.118098      0.057295     -0.259997
O	      6.19135      2.05851      4.29797        -0.037611      0.276591     -0.166676
O	      4.14540      4.15137      0.02449        -0.130156     -0.212692     -0.319599
O	      6.19190      6.18776      4.30527        -0.026571     -0.057305     -0.210879
O	      8.25473      0.02222      0.03944        -0.093203      0.095704     -0.349488
O	     10.30932      2.06119      4.29823         0.014139      0.266353     -0.144297
O	      8.25548      4.15179      0.05038        -0.102599     -0.238276     -0.440451
O	     10.31007      6.18487      4.30656         0.007558     -0.052987     -0.200752
O	      2.06784      4.12796      2.17465         0.197336      0.073765      0.164522
O	      4.11264      6.18389      6.45615         0.116247      0.045598     -0.067599
O	      2.06925      8.25695      2.18261         0.199477     -0.231138      0.104961
O	      4.11346     10.31325      6.46383         0.120349     -0.273390     -0.135192
O	      6.18884      4.12689      2.16409        -0.001109      0.072440      0.271640
O	      6.18885      8.25630      2.17187         0.010633     -0.271526      0.179428
O	     10.30102      4.12692      2.17220         0.028011      0.069523      0.281670
O	     12.38125      6.18256      6.45949        -0.021582      0.045510     -0.058497
O	     10.30240      8.25649      2.17000         0.016925     -0.270059      0.224896
O	     12.38218     10.31284      6.46714        -0.023104     -0.282332     -0.120167
