# total energy = -701.65348978 eV
 
CRYSTAL
PRIMVEC
12.371822 -0.001750 0.002416 
0.001563 8.258911 0.016014 
4.124510 4.113032 8.591833 
PRIMCOORD
94 1
Li	      2.12528      4.21328      0.09314        -0.090409     -0.110338     -0.120544
Li	      4.15949      6.24982      4.36157         0.207314      0.004010     -0.054750
Li	      2.12442      0.04278      0.08611        -0.089162      0.019102     -0.162793
Li	      4.15865      2.16218      4.35280         0.210589     -0.202526     -0.102297
Li	      6.24588      4.17187      0.00944         0.065190      0.056381      0.119877
Li	      8.32664      6.24990      4.24226        -0.001211     -0.002575     -0.072809
Li	      6.28642      0.04189      0.08549        -0.121270      0.019006     -0.138998
Li	      8.32617      2.07979      4.23409         0.004607      0.136675     -0.097534
Li	     10.41183      4.17168      0.03846        -0.110259      0.058620      0.257147
Li	     12.50553      6.24960      4.35666        -0.050008      0.006935      0.071347
Li	     10.41080      0.08361      0.02680        -0.115467     -0.182392      0.206722
Li	     12.50507      2.16092      4.34950        -0.049003     -0.199435      0.022264
Li	      4.15065      4.16770      2.19197         0.064482      0.029193     -0.102145
Li	      6.20437      6.24494      6.54320        -0.055675     -0.001760     -0.051942
Li	      4.15138      8.33831      2.19830         0.044768     -0.139733     -0.012773
Li	      6.20549     10.41526      6.55240        -0.028361     -0.186151      0.008143
Li	      8.32961      4.16830      2.14311         0.011853      0.018132     -0.031233
Li	     10.45742      6.24614      6.54763        -0.020131     -0.030417     -0.094341
Li	      8.32623      8.33938      2.14882         0.041584     -0.159119      0.030928
Li	     10.45820     10.41473      6.55559        -0.037225     -0.173847     -0.012454
Li	     12.51090      4.16739      2.16549        -0.235992      0.025056     -0.000966
Li	     14.57670      6.24423      6.52715        -0.312526      0.002914     -0.162391
Li	     12.51613      8.33794      2.17289        -0.244374     -0.149155      0.077190
Li	     14.57715     10.41484      6.53432        -0.314717     -0.165451     -0.069019
Ti	      2.08863      2.08337      2.17266         0.780535      0.410812     -0.132445
Ti	      4.12774      4.15983      6.51903         1.012242      0.421459      0.065447
Ti	      2.08993      6.25364      2.18152         0.761696      0.003503      0.060377
Ti	      4.12804      8.33101      6.52594         1.006388     -0.083013      0.097527
Ti	      6.23647      2.08209      2.18455         0.011395      0.497120     -0.142387
Ti	      8.32986      4.15918      6.55297        -0.071459      0.101431     -0.323331
Ti	      6.23655      6.25389      2.19202         0.030288     -0.199746     -0.043237
Ti	      8.33197      8.32964      6.56091        -0.175901     -0.061323     -0.173417
Ti	     10.41789      2.07781      2.19807        -0.177822      0.457075      0.051755
Ti	     12.53024      4.15930      6.51891        -0.171668      0.406850     -0.085765
Ti	     10.41890      6.25809      2.20523        -0.213529     -0.122219      0.107136
Ti	     12.53158      8.32939      6.52836        -0.135619     -0.074529     -0.066648
Ti	      0.00456      2.08845      0.00463         1.050399      0.322235      0.551709
Ti	      2.20296      4.16559      4.37628        -0.907549      0.409229     -0.174245
Ti	      0.00454      6.25701      0.01218         0.876190     -0.047818      0.696156
Ti	      2.20524      8.33525      4.38510        -0.911629     -0.150092     -0.088600
Ti	      4.16558      2.08678      0.05420         0.208222      0.325076      0.405866
Ti	      6.21420      4.16417      4.31164         0.140721      0.146973      0.081731
Ti	      4.16661      6.25686      0.06300         0.271454     -0.107275      0.514196
Ti	      6.21384      8.33640      4.31977        -0.002249     -0.353430      0.314008
Ti	      8.32283      2.08763      0.00792         0.032771      0.354448      0.710841
Ti	     10.45063      4.16465      4.31583         0.018912      0.141241     -0.021183
Ti	      8.32311      6.25733      0.01573         0.084864     -0.108052      0.881801
Ti	     10.44967      8.33536      4.31631         0.178369     -0.342482      0.185811
O	      2.07771      2.08726      0.01468         0.376423      0.153303      0.500742
O	      4.17960      4.16445      4.35288         0.849870      0.103668      0.080319
O	      2.07802      6.25699      0.02212         0.375010      0.026328      0.565858
O	      4.17949      8.33642      4.35953         0.738401     -0.073289      0.127865
O	      6.25168      2.08684      0.01272         0.137268      0.156236      0.434793
O	      8.32873      4.16435      4.45456         0.026205     -0.025352      0.335046
O	      6.25296      6.25668      0.02121         0.159098      0.029216      0.506641
O	      8.33127      8.33441      4.46226         0.024499     -0.136999      0.309293
O	     10.41098      2.08730      0.03254        -0.586687      0.188115      0.214561
O	     12.48261      4.16388      4.34839        -0.362923      0.093176      0.315735
O	     10.41229      6.25615      0.04045        -0.588597      0.036450      0.292798
O	     12.48177      8.33478      4.35700        -0.236134     -0.068159      0.361332
O	      4.16367      2.08371      2.20537         0.155943      0.193701     -0.256311
O	      6.29938      4.15924      6.46546         0.275653      0.080568     -0.428660
O	      4.16439      6.25284      2.21334         0.152945      0.028781     -0.203342
O	      6.30122      8.33036      6.47261         0.255979     -0.069858     -0.375489
O	      8.33331      2.08174      2.17789        -0.063741      0.175898     -0.112427
O	     10.35996      4.15880      6.46963        -0.123156      0.083675     -0.431774
O	      8.33426      6.25447      2.18583        -0.057462      0.027778     -0.079265
O	     10.36067      8.32951      6.47527        -0.098685     -0.073348     -0.333065
O	     12.49266      2.08085      2.16620        -0.768325      0.221764      0.057302
O	     14.57737      4.15842      6.54603        -1.014645      0.170840     -0.270157
O	     12.49217      6.25402      2.17382        -0.717630      0.009227      0.096228
O	     14.57770      8.32919      6.55431        -0.993195     -0.036573     -0.251979
O	      0.05217      0.04315      0.07883         0.017108      0.199261     -0.668426
O	      2.20056      2.16232      4.34872        -0.442360     -0.444528     -0.143441
O	      0.05287      4.21407      0.08796         0.022833     -0.417655     -0.766547
O	      2.20144      6.24985      4.35625        -0.447766      0.003493     -0.228946
O	      4.20546      0.04243      0.05917        -0.230433      0.113087     -0.542929
O	      6.25312      2.07904      4.34085        -0.065324      0.548441     -0.284678
O	      4.20727      4.21324      0.06748        -0.238144     -0.372787     -0.660256
O	      6.25367      6.24948      4.34821        -0.045874     -0.118809     -0.366586
O	      8.35760      0.04291      0.08258        -0.195148      0.184443     -0.686902
O	     10.41215      2.08175      4.34111         0.028349      0.534585     -0.259323
O	      8.35835      4.21366      0.09363        -0.196911     -0.415265     -0.852360
O	     10.41291      6.24656      4.34952         0.011565     -0.114988     -0.359066
O	      2.08846      4.16913      2.19635         0.443894      0.151010      0.321142
O	      4.15366      6.24557      6.52056         0.226405      0.092814     -0.134660
O	      2.08989      8.33931      2.20438         0.442881     -0.465780      0.193089
O	      4.15449     10.41612      6.52831         0.238351     -0.562799     -0.291113
O	      6.25058      4.16805      2.18567         0.003132      0.133226      0.487497
O	      6.25058      8.33866      2.19353         0.025133     -0.519982      0.306948
O	     10.40377      4.16809      2.19388         0.038696      0.129958      0.518122
O	     12.50475      6.24423      6.52392        -0.028547      0.102464     -0.125435
O	     10.40517      8.33885      2.19165         0.027697     -0.515947      0.390245
O	     12.50570     10.41571      6.53165        -0.023267     -0.559984     -0.282155
