# total energy = -699.75246251 eV
 
CRYSTAL
PRIMVEC
12.433069 -0.001759 0.002428 
0.001571 8.299797 0.016094 
4.144929 4.133394 8.634367 
PRIMCOORD
94 1
Li	      2.16690      4.27555      0.13680        -0.136636     -0.149742     -0.182323
Li	      4.20078      6.31185      4.40486         0.348626      0.005486     -0.081847
Li	      2.16602      0.06366      0.12970        -0.133669      0.027889     -0.253302
Li	      4.19993      2.22473      4.39609         0.349841     -0.309480     -0.144383
Li	      6.30787      4.21328      0.00953         0.096391      0.086603      0.189559
Li	      8.40928      6.31193      4.28436        -0.002632     -0.003551     -0.110795
Li	      6.36934      0.06277      0.12909        -0.167911      0.027438     -0.209192
Li	      8.40881      2.10044      4.27612         0.000600      0.204900     -0.150393
Li	     10.51518      4.21310      0.03885        -0.174395      0.091199      0.393074
Li	     12.62966      6.31163      4.39990        -0.072053      0.006060      0.117815
Li	     10.51414      0.12553      0.02714        -0.185169     -0.277571      0.311888
Li	     12.62919      2.22347      4.39276        -0.068278     -0.292498      0.047592
Li	      4.19185      4.20907      2.21373         0.104733      0.045095     -0.152965
Li	      6.26596      6.30692      6.60815        -0.096758     -0.004407     -0.082024
Li	      4.19259      8.42108      2.22012         0.075705     -0.215756     -0.028662
Li	      6.26708     10.51864      6.61743        -0.062850     -0.273030      0.010889
Li	      8.41230      4.20967      2.16439         0.016959      0.029475     -0.027732
Li	     10.56122      6.30813      6.61263        -0.017879     -0.047295     -0.145672
Li	      8.40887      8.42215      2.17015         0.063081     -0.239219      0.062791
Li	     10.56200     10.51811      6.62065        -0.046613     -0.254127     -0.018555
Li	     12.63507      4.20875      2.18699        -0.393148      0.039320     -0.000674
Li	     14.72139      6.30620      6.59194        -0.513579      0.004230     -0.270623
Li	     12.64037      8.42070      2.19446        -0.406305     -0.227818      0.114352
Li	     14.72183     10.51821      6.59917        -0.521635     -0.248892     -0.127160
Ti	      2.10937      2.10404      2.19422         1.241351      0.628363     -0.196117
Ti	      4.16872      4.20111      6.58374         1.710686      0.662996      0.138076
Ti	      2.11068      6.31572      2.20318         1.209169     -0.003789      0.105029
Ti	      4.16902      8.41369      6.59072         1.684313     -0.112305      0.170885
Ti	      6.29837      2.10276      2.20624         0.019832      0.742939     -0.169359
Ti	      8.41254      4.20046      6.61801        -0.104027      0.149608     -0.450229
Ti	      6.29845      6.31597      2.21378         0.038785     -0.304809     -0.007482
Ti	      8.41466      8.41232      6.62604        -0.260460     -0.088146     -0.238977
Ti	     10.52129      2.09844      2.21990        -0.301659      0.678604      0.148246
Ti	     12.65460      4.20059      6.58362        -0.295917      0.612930     -0.094482
Ti	     10.52231      6.32021      2.22712        -0.358885     -0.186074      0.238383
Ti	     12.65596      8.41207      6.59316        -0.246083     -0.085392     -0.074891
Ti	      0.00461      2.10918      0.00467         1.717049      0.403015      0.748897
Ti	      2.28638      4.20693      4.41973        -1.480024      0.624582     -0.260811
Ti	      0.00458      6.31912      0.01231         1.429823     -0.084964      0.970745
Ti	      2.28867      8.41797      4.42863        -1.453120     -0.236543     -0.139918
Ti	      4.20692      2.10749      0.05473         0.301014      0.410360      0.632877
Ti	      6.27587      4.20549      4.35443         0.251956      0.232200      0.079077
Ti	      4.20798      6.31896      0.06363         0.386889     -0.166755      0.782376
Ti	      6.27552      8.41913      4.36264         0.044609     -0.540435      0.425575
Ti	      8.40544      2.10835      0.00799         0.031363      0.434135      0.996410
Ti	     10.55436      4.20599      4.35867         0.018057      0.222838     -0.051856
Ti	      8.40571      6.31943      0.01588         0.090370     -0.162837      1.252911
Ti	     10.55340      8.41810      4.35915         0.244344     -0.513873      0.242077
O	      2.09833      2.10799      0.01482         0.569413      0.203778      0.735264
O	      4.22108      4.20578      4.39608         1.345103      0.156969      0.094896
O	      2.09864      6.31910      0.02233         0.572453      0.041113      0.818750
O	      4.22097      8.41915      4.40280         1.146520     -0.096229      0.160677
O	      6.31374      2.10755      0.01285         0.201826      0.222045      0.606728
O	      8.41138      4.20568      4.49876         0.032554     -0.036127      0.489283
O	      6.31503      6.31879      0.02142         0.246442      0.052729      0.718502
O	      8.41396      8.41714      4.50654         0.027338     -0.206995      0.454385
O	     10.51432      2.10802      0.03286        -0.975410      0.280318      0.325097
O	     12.60651      4.20521      4.39155        -0.524773      0.138550      0.444657
O	     10.51564      6.31824      0.04085        -0.963340      0.056006      0.425631
O	     12.60565      8.41751      4.40024        -0.328951     -0.097882      0.502697
O	      4.20499      2.10439      2.22726         0.232072      0.291617     -0.373080
O	      6.36192      4.20053      6.52963         0.407662      0.121868     -0.611388
O	      4.20572      6.31490      2.23531         0.231906      0.046481     -0.304386
O	      6.36377      8.41304      6.53685         0.363405     -0.105478     -0.530836
O	      8.41602      2.10240      2.19951        -0.085393      0.270962     -0.161393
O	     10.46278      4.20008      6.53385        -0.172726      0.129772     -0.615319
O	      8.41697      6.31654      2.20752        -0.075565      0.043282     -0.097843
O	     10.46351      8.41219      6.53955        -0.146026     -0.119681     -0.464377
O	     12.61664      2.10150      2.18769        -1.217038      0.336678      0.084440
O	     14.72207      4.19969      6.61100        -1.665353      0.253297     -0.392190
O	     12.61616      6.31609      2.19539        -1.127361      0.020855      0.144280
O	     14.72238      8.41185      6.61936        -1.592871     -0.049377     -0.369168
O	      0.07321      0.06404      0.12235         0.011545      0.279078     -0.971001
O	      2.28395      2.22487      4.39198        -0.698319     -0.672179     -0.195528
O	      0.07393      4.27636      0.13158         0.029132     -0.540086     -1.114980
O	      2.28484      6.31188      4.39951        -0.706366      0.004471     -0.331072
O	      4.26771      0.06331      0.10250        -0.337642      0.164247     -0.826141
O	      6.31518      2.09968      4.38393        -0.101967      0.800137     -0.393798
O	      4.26955      4.27552      0.11089        -0.339135     -0.480224     -0.987524
O	      6.31574      6.31151      4.39137        -0.072370     -0.169294     -0.510843
O	      8.46107      0.06380      0.12614        -0.287670      0.271322     -1.020608
O	     10.51549      2.10242      4.38419         0.040477      0.781351     -0.355299
O	      8.46183      4.27596      0.13730        -0.268955     -0.542845     -1.232569
O	     10.51627      6.30856      4.39269         0.022989     -0.170539     -0.498959
O	      2.10919      4.21052      2.21815         0.720234      0.217775      0.467106
O	      4.19489      6.30756      6.58527         0.344876      0.146997     -0.195538
O	      2.11063      8.42208      2.22626         0.721738     -0.692760      0.284256
O	      4.19573     10.51951      6.59310         0.377850     -0.876399     -0.450411
O	      6.31262      4.20942      2.20737         0.010745      0.184669      0.687306
O	      6.31262      8.42142      2.21530         0.035414     -0.753383      0.426309
O	     10.50703      4.20945      2.21565         0.046520      0.187929      0.733063
O	     12.62886      6.30620      6.58867        -0.039881      0.142108     -0.185287
O	     10.50845      8.42162      2.21340         0.036820     -0.747521      0.535022
O	     12.62981     10.51909      6.59648        -0.023782     -0.830357     -0.457908
