# total energy = -693.72601256 eV
 
CRYSTAL
PRIMVEC
12.555562 -0.001776 0.002452 
0.001587 8.381568 0.016252 
4.185765 4.174117 8.719434 
PRIMCOORD
94 1
Li	      2.25103      4.40134      0.22541        -0.200644     -0.197051     -0.325832
Li	      4.28396      6.43683      4.49208         0.740939      0.009092     -0.144792
Li	      2.25015      0.10605      0.21817        -0.208610      0.047017     -0.449827
Li	      4.28311      2.35136      4.48329         0.749004     -0.535028     -0.239512
Li	      6.43276      4.29670      0.00972         0.125238      0.145969      0.333666
Li	      8.57580      6.43693      4.36920        -0.003581     -0.008682     -0.178691
Li	      6.53670      0.10514      0.21755        -0.265031      0.040737     -0.370289
Li	      8.57532      2.14203      4.36079         0.000894      0.350547     -0.239773
Li	     10.72338      4.29651      0.03961        -0.321221      0.151966      0.692433
Li	     12.87975      6.43660      4.48702        -0.125441      0.010121      0.225580
Li	     10.72235      0.21059      0.02784        -0.364380     -0.492710      0.547996
Li	     12.87928      2.35006      4.47989        -0.111605     -0.484852      0.111221
Li	      4.27486      4.29241      2.25756         0.186015      0.070742     -0.275775
Li	      6.39003      6.43181      6.73899        -0.164662     -0.008709     -0.174432
Li	      4.27560      8.58782      2.26408         0.141426     -0.366807     -0.078126
Li	      6.39117     10.72692      6.74846        -0.093279     -0.455304     -0.007931
Li	      8.57887      4.29303      2.20725         0.025515      0.050914      0.008174
Li	     10.77034      6.43304      6.74356        -0.027751     -0.075933     -0.275511
Li	      8.57538      8.58892      2.21313         0.098243     -0.400953      0.145619
Li	     10.77114     10.72638      6.75175        -0.080795     -0.427157     -0.053148
Li	     12.88526      4.29209      2.23028        -0.821797      0.054504      0.016390
Li	     15.01289      6.43108      6.72246        -1.036915      0.017107     -0.531119
Li	     12.89067      8.58744      2.23792        -0.852406     -0.396132      0.195204
Li	     15.01334     10.72649      6.72984        -1.070992     -0.433333     -0.285748
Ti	      2.15113      2.14570      2.23767         2.399246      1.114141     -0.311513
Ti	      4.25126      4.28431      6.71411         3.603604      1.260786      0.310031
Ti	      2.15248      6.44078      2.24680         2.344136     -0.033532      0.231798
Ti	      4.25156      8.58030      6.72123         3.538495     -0.187528      0.325037
Ti	      6.42309      2.14439      2.24992         0.019265      1.286778     -0.152849
Ti	      8.57911      4.28364      6.74905        -0.151688      0.243827     -0.673607
Ti	      6.42316      6.44103      2.25761         0.041240     -0.519724      0.066477
Ti	      8.58129      8.57890      6.75724        -0.394912     -0.131488     -0.369662
Ti	     10.72963      2.13998      2.26385        -0.593383      1.163033      0.462548
Ti	     12.90518      4.28375      6.71398        -0.580221      1.137967     -0.138417
Ti	     10.73067      6.44535      2.27121        -0.747500     -0.416587      0.675599
Ti	     12.90657      8.57864      6.72371        -0.555081     -0.081767     -0.114342
Ti	      0.00470      2.15095      0.00476         3.404204      0.465361      1.092673
Ti	      2.45535      4.29021      4.50727        -2.967266      1.092063     -0.476078
Ti	      0.00467      6.44424      0.01255         2.837157     -0.177063      1.493225
Ti	      2.45770      8.58464      4.51635        -2.837965     -0.416343     -0.308408
Ti	      4.29022      2.14923      0.05581         0.492595      0.461123      0.999481
Ti	      6.40014      4.28877      4.44065         0.552445      0.347215      0.022817
Ti	      4.29130      6.44409      0.06489         0.630840     -0.305940      1.245318
Ti	      6.39978      8.58585      4.44903         0.222313     -0.917032      0.611699
Ti	      8.57188      2.15010      0.00815        -0.024561      0.427722      1.463819
Ti	     10.76334      4.28927      4.44497        -0.029211      0.480611     -0.211025
Ti	      8.57215      6.44456      0.01619        -0.006794     -0.355536      2.003751
Ti	     10.76238      8.58479      4.44546         0.337661     -0.860884      0.324814
O	      2.13988      2.14973      0.01511         0.941861      0.261732      1.207809
O	      4.30467      4.28906      4.48313         2.540474      0.293621      0.150438
O	      2.14020      6.44422      0.02277         0.969670      0.061380      1.339234
O	      4.30456      8.58587      4.48999         2.189156     -0.126122      0.205781
O	      6.43876      2.14929      0.01310         0.323268      0.337749      0.931545
O	      8.57794      4.28896      4.58785         0.092477     -0.063489      0.761298
O	      6.44007      6.44391      0.02185         0.400598      0.089429      1.077631
O	      8.58056      8.58381      4.59578         0.052159     -0.342063      0.697177
O	     10.72251      2.14976      0.03351        -2.029006      0.464624      0.518309
O	     12.85614      4.28847      4.47851        -0.819537      0.232102      0.650688
O	     10.72387      6.44335      0.04165        -1.959623      0.090685      0.638851
O	     12.85526      8.58419      4.48738        -0.488695     -0.137419      0.742167
O	      4.28826      2.14606      2.27136         0.386700      0.489604     -0.570516
O	      6.48789      4.28371      6.65893         0.625359      0.203482     -0.918291
O	      4.28899      6.43994      2.27957         0.354332      0.091626     -0.479965
O	      6.48978      8.57963      6.66629         0.561521     -0.161751     -0.783768
O	      8.58268      2.14403      2.24306        -0.133192      0.469671     -0.276940
O	     10.66997      4.28325      6.66324        -0.278764      0.215349     -0.940224
O	      8.58364      6.44162      2.25123        -0.084304      0.088940     -0.145056
O	     10.67070      8.57875      6.66904        -0.238274     -0.206143     -0.698765
O	     12.86648      2.14311      2.23102        -2.335556      0.597962      0.119983
O	     15.01359      4.28285      6.74191        -3.335898      0.443802     -0.600725
O	     12.86598      6.44116      2.23886        -2.076473      0.046332      0.221644
O	     15.01391      8.57842      6.75043        -3.155625     -0.082174     -0.577156
O	      0.11589      0.10644      0.21068        -0.003355      0.399198     -1.542326
O	      2.45290      2.35148      4.47913        -1.302075     -1.134558     -0.254478
O	      0.11663      4.40216      0.22009         0.045999     -0.642132     -1.733617
O	      2.45378      6.43684      4.48664        -1.318675     -0.003400     -0.474882
O	      4.39345      0.10568      0.19043        -0.558349      0.246744     -1.334874
O	      6.44023      2.14126      4.47074        -0.170486      1.198905     -0.569753
O	      4.39533      4.40131      0.19900        -0.512873     -0.553422     -1.573807
O	      6.44081      6.43649      4.47833        -0.119208     -0.202084     -0.738704
O	      8.66985      0.10618      0.21454        -0.467295      0.356091     -1.634315
O	     10.72372      2.14405      4.47101         0.064138      1.220083     -0.512347
O	      8.67062      4.40175      0.22593        -0.386151     -0.592774     -1.924055
O	     10.72450      6.43348      4.47967         0.059517     -0.213065     -0.706468
O	      2.15096      4.29389      2.26207         1.376605      0.331106      0.711680
O	      4.27796      6.43246      6.71567         0.659866      0.232788     -0.300012
O	      2.15242      8.58885      2.27034         1.376537     -1.187790      0.437651
O	      4.27881     10.72780      6.72365         0.765554     -1.557109     -0.776128
O	      6.43762      4.29278      2.25108         0.014985      0.277165      0.988211
O	      6.43762      8.58819      2.25917         0.066247     -1.198090      0.619649
O	     10.71509      4.29281      2.25952         0.064112      0.215270      1.086180
O	     12.87894      6.43108      6.71914        -0.054444      0.232378     -0.250281
O	     10.71653      8.58837      2.25722         0.062858     -1.160365      0.784029
O	     12.87990     10.72739      6.72710        -0.018915     -1.367134     -0.791464
