# total energy = -689.56096651 eV
 
CRYSTAL
PRIMVEC
12.616809 -0.001785 0.002464 
0.001594 8.422454 0.016331 
4.206184 4.194478 8.761968 
PRIMCOORD
94 1
Li	      2.29357      4.46485      0.27037        -0.221822     -0.210860     -0.403737
Li	      4.32586      6.49979      4.53602         1.006907      0.006771     -0.182452
Li	      2.29268      0.12755      0.26305        -0.242734      0.055754     -0.554752
Li	      4.32501      2.41544      4.52722         1.023305     -0.656910     -0.290414
Li	      6.49568      4.33872      0.00981         0.129672      0.173210      0.410779
Li	      8.65967      6.49988      4.41193        -0.008022     -0.011220     -0.206620
Li	      6.62114      0.12662      0.26242        -0.311550      0.044622     -0.454815
Li	      8.65918      2.16297      4.40344         0.001725      0.427013     -0.274280
Li	     10.82827      4.33854      0.04000        -0.402923      0.173127      0.858147
Li	     13.00570      6.49955      4.53090        -0.150033      0.011150      0.282559
Li	     10.82722      0.25374      0.02819        -0.472201     -0.606139      0.676877
Li	     13.00525      2.41413      4.52379        -0.128076     -0.582580      0.146920
Li	      4.31666      4.33439      2.27964         0.231991      0.089835     -0.340642
Li	      6.45253      6.49471      6.80491        -0.185986     -0.006956     -0.230637
Li	      4.31742      8.67181      2.28623         0.178125     -0.451350     -0.111728
Li	      6.45368     10.83183      6.81446        -0.099706     -0.549290     -0.021927
Li	      8.66277      4.33501      2.22883         0.022592      0.062116      0.035065
Li	     10.87567      6.49596      6.80952        -0.053841     -0.088115     -0.347902
Li	      8.65924      8.67292      2.23477         0.107329     -0.488288      0.195140
Li	     10.87649     10.83128      6.81779        -0.111078     -0.512103     -0.067266
Li	     13.01128      4.33407      2.25210        -1.108585      0.066123      0.026060
Li	     15.15972      6.49397      6.78821        -1.390827      0.022186     -0.691301
Li	     13.01673      8.67143      2.25980        -1.150891     -0.491410      0.233205
Li	     15.16017     10.83139      6.79566        -1.431931     -0.536732     -0.397347
Ti	      2.17217      2.16669      2.25956         3.124278      1.378016     -0.356601
Ti	      4.29284      4.32620      6.77977         4.926902      1.621353      0.387738
Ti	      2.17353      6.50377      2.26877         3.047722     -0.065851      0.329501
Ti	      4.29315      8.66421      6.78696         4.824885     -0.228392      0.444161
Ti	      6.48591      2.16536      2.27193         0.036096      1.552087     -0.109604
Ti	      8.66301      4.32553      6.81506        -0.178424      0.257295     -0.692084
Ti	      6.48598      6.50402      2.27969         0.101593     -0.597608      0.154708
Ti	      8.66521      8.66280      6.82333        -0.452947     -0.172465     -0.356389
Ti	     10.83456      2.16092      2.28600        -0.792457      1.440387      0.586450
Ti	     13.03139      4.32565      6.77964        -0.768532      1.436533     -0.189386
Ti	     10.83563      6.50839      2.29343        -0.999328     -0.349319      0.859784
Ti	     13.03279      8.66254      6.78947        -0.754964     -0.073268     -0.167235
Ti	      0.00473      2.17198      0.00481         4.513981      0.477700      1.277134
Ti	      2.54091      4.33216      4.55136        -3.911816      1.367193     -0.646005
Ti	      0.00471      6.50726      0.01267         3.751692     -0.256245      1.760123
Ti	      2.54328      8.66859      4.56053        -3.729759     -0.490379     -0.485946
Ti	      4.33218      2.17025      0.05637         0.545948      0.495395      1.083877
Ti	      6.46273      4.33071      4.48409         0.682806      0.455004     -0.036488
Ti	      4.33327      6.50711      0.06553         0.748482     -0.392421      1.341208
Ti	      6.46238      8.66982      4.49254         0.329778     -1.189612      0.659464
Ti	      8.65571      2.17112      0.00823        -0.010040      0.377784      1.707107
Ti	     10.86862      4.33122      4.48845        -0.045252      0.459228     -0.204475
Ti	      8.65599      6.50759      0.01635        -0.124179     -0.461640      2.467537
Ti	     10.86762      8.66874      4.48894         0.361382     -1.122733      0.386042
O	      2.16081      2.17075      0.01526         1.138845      0.271691      1.440463
O	      4.34677      4.33101      4.52698         3.331915      0.378938      0.191184
O	      2.16113      6.50725      0.02300         1.160586      0.080948      1.604109
O	      4.34665      8.66984      4.53389         2.857259     -0.124696      0.255683
O	      6.50173      2.17031      0.01323         0.367541      0.384123      1.113862
O	      8.66184      4.33091      4.63271         0.113343     -0.084430      0.909728
O	      6.50305      6.50693      0.02205         0.469408      0.114840      1.246546
O	      8.66449      8.66776      4.64073         0.055391     -0.410341      0.829574
O	     10.82738      2.17078      0.03384        -2.795329      0.559324      0.600785
O	     12.98186      4.33042      4.52231        -0.933962      0.286891      0.759828
O	     10.82874      6.50637      0.04207        -2.645682      0.094079      0.713474
O	     12.98099      8.66814      4.53126        -0.513815     -0.141898      0.853853
O	      4.33020      2.16705      2.29358         0.479343      0.594511     -0.668297
O	      6.55134      4.32560      6.72405         0.741980      0.260192     -1.041782
O	      4.33094      6.50292      2.30186         0.415124      0.118554     -0.581064
O	      6.55324      8.66353      6.73148         0.638363     -0.176939     -0.886796
O	      8.66661      2.16500      2.26500        -0.198388      0.576349     -0.339856
O	     10.77431      4.32513      6.72840        -0.340717      0.278913     -1.063932
O	      8.66759      6.50461      2.27325        -0.111627      0.109591     -0.168871
O	     10.77506      8.66265      6.73426        -0.308857     -0.243257     -0.810831
O	     12.99231      2.16407      2.25283        -3.038219      0.737258      0.137465
O	     15.16042      4.32474      6.80785        -4.461891      0.546862     -0.704642
O	     12.99180      6.50416      2.26076        -2.653993      0.065888      0.232721
O	     15.16074      8.66232      6.81645        -4.172140     -0.098334     -0.690712
O	      0.13755      0.12794      0.25548        -0.029399      0.436800     -1.820871
O	      2.53843      2.41555      4.52302        -1.653198     -1.391378     -0.257481
O	      0.13828      4.46567      0.26498         0.041349     -0.636878     -2.035639
O	      2.53933      6.49979      4.53054        -1.682209     -0.007991     -0.512946
O	      4.45694      0.12718      0.23503        -0.649172      0.278859     -1.603057
O	      6.50321      2.16220      4.51446        -0.213912      1.412024     -0.655346
O	      4.45884      4.46481      0.24368        -0.583416     -0.542516     -1.865872
O	      6.50379      6.49943      4.52212        -0.162462     -0.221476     -0.809462
O	      8.77516      0.12768      0.25938        -0.535460      0.364735     -1.956160
O	     10.82860      2.16502      4.51473         0.081625      1.410647     -0.604011
O	      8.77594      4.46526      0.27088        -0.407242     -0.541100     -2.255101
O	     10.82939      6.49640      4.52349         0.076713     -0.264967     -0.817548
O	      2.17199      4.33589      2.28419         1.773649      0.352035      0.822204
O	      4.31979      6.49536      6.78135         0.877948      0.266879     -0.344908
O	      2.17347      8.67285      2.29254         1.785803     -1.467274      0.495508
O	      4.32066     10.83273      6.78942         1.034728     -1.946121     -0.929757
O	      6.50058      4.33475      2.27309         0.019071      0.280355      1.126075
O	      6.50059      8.67217      2.28127         0.081001     -1.388894      0.678366
O	     10.81989      4.33479      2.28162         0.084497      0.244288      1.252565
O	     13.00490      6.49397      6.78485        -0.071042      0.251019     -0.244905
O	     10.82134      8.67237      2.27930         0.079624     -1.295485      0.871835
O	     13.00587     10.83229      6.79289        -0.002256     -1.630614     -0.955541
