# total energy = -91.31301136 eV
 
CRYSTAL
PRIMVEC
4.134417 0.009149 4.103514 
0.000272 4.093117 -4.094532 
-0.000466 4.112520 4.113936 
PRIMCOORD
16 1
Li	      2.06746      2.05041      0.00544        -0.000570      0.001249      0.001079
Li	      2.06689      4.09722     -2.04172         0.001294      0.000830      0.001407
Li	      4.13445      2.05504      2.05738        -0.001036     -0.000601      0.000268
Li	      4.13422      6.15785      2.06707         0.001567      0.000510      0.000219
Mn	      4.13464      4.10164      0.01014        -0.003021     -0.000372     -0.001959
Mn	      4.13396      4.11129      4.11432         0.006294     -0.000185      0.001675
Ni	      2.06710      4.10709      2.06270        -0.003921     -0.013662     -0.003699
Ni	      2.06710      6.15344      0.01571        -0.000704     -0.003988     -0.013897
O	      2.03703      4.05812     -0.03310        -0.103359     -0.083195     -0.090754
O	      2.06637      2.21171      2.21379        -0.002979     -0.156547     -0.144537
O	      4.03866      4.10583      2.06903         0.142479      0.008060      0.044241
O	      4.03951      2.06257      4.10895         0.135339      0.038258      0.006810
O	      2.06751      6.00134      1.91101         0.004172      0.167423      0.157575
O	      2.09702      4.15525      4.15813         0.101107      0.085598      0.092966
O	      0.09438      6.15088      0.01621        -0.135602     -0.037124     -0.007233
O	      0.09525      4.10754      2.05613        -0.141057     -0.006253     -0.044163
