# total energy = -684.56170260 eV
 
CRYSTAL
PRIMVEC
12.678055 -0.001794 0.002476 
0.001602 8.463340 0.016411 
4.226602 4.214840 8.804502 
PRIMCOORD
94 1
Li	      2.33641      4.52876      0.31574        -0.235569     -0.209207     -0.478741
Li	      4.36795      6.56305      4.58016         1.342292      0.011549     -0.228103
Li	      2.33550      0.14925      0.30835        -0.269143      0.049893     -0.663588
Li	      4.36710      2.48003      4.57136         1.368506     -0.786717     -0.338980
Li	      6.55890      4.38095      0.00991         0.130432      0.204313      0.488559
Li	      8.74395      6.56313      4.45487        -0.008690     -0.013411     -0.234938
Li	      6.70611      0.14832      0.30772        -0.354498      0.044724     -0.550561
Li	      8.74346      2.18402      4.44629         0.002185      0.506964     -0.305533
Li	     10.93364      4.38076      0.04039        -0.494601      0.197871      1.029202
Li	     13.13228      6.56281      4.57501        -0.165307      0.012921      0.329814
Li	     10.93261      0.29729      0.02855        -0.600743     -0.739630      0.807079
Li	     13.13182      2.47871      4.56790        -0.134372     -0.679811      0.187664
Li	      4.35866      4.37657      2.30182         0.268926      0.107891     -0.406737
Li	      6.51533      6.55791      6.87113        -0.202337      0.002522     -0.292058
Li	      4.35943      8.75621      2.30848         0.207248     -0.548828     -0.147866
Li	      6.51650     10.93725      6.88078        -0.103317     -0.642832     -0.026283
Li	      8.74708      4.37721      2.25053         0.020777      0.075171      0.069662
Li	     10.98152      6.55918      6.87579        -0.079468     -0.094928     -0.429499
Li	      8.74352      8.75733      2.25652         0.119964     -0.579052      0.248414
Li	     10.98234     10.93670      6.88414        -0.150263     -0.603169     -0.081927
Li	     13.13790      4.37625      2.27401        -1.460332      0.079291      0.038077
Li	     15.30725      6.55717      6.85427        -1.816602      0.035925     -0.875673
Li	     13.14342      8.75582      2.28180        -1.523571     -0.608760      0.267639
Li	     15.30772     10.93681      6.86180        -1.877680     -0.644105     -0.518987
Ti	      2.19331      2.18777      2.28155         4.022147      1.685042     -0.370890
Ti	      4.33462      4.36831      6.84575         6.519524      2.030209      0.490274
Ti	      2.19467      6.56706      2.29086         3.910094     -0.125232      0.375834
Ti	      4.33493      8.74853      6.85301         6.369628     -0.275459      0.600238
Ti	      6.54903      2.18643      2.29404         0.012052      1.865638     -0.068945
Ti	      8.74733      4.36763      6.88138        -0.191020      0.246713     -0.734166
Ti	      6.54911      6.56732      2.30187         0.133299     -0.723371      0.212723
Ti	      8.74955      8.74711      6.88974        -0.502380     -0.208201     -0.370954
Ti	     10.94001      2.18194      2.30824        -0.985251      1.743245      0.768224
Ti	     13.15823      4.36775      6.84562        -0.925165      1.767416     -0.240030
Ti	     10.94108      6.57174      2.31575        -1.204527     -0.427007      1.025479
Ti	     13.15964      8.74685      6.85554        -0.966234     -0.067335     -0.218109
Ti	      0.00478      2.19312      0.00485         5.832202      0.497414      1.404911
Ti	      2.62719      4.37432      4.59567        -5.107556      1.680280     -0.828495
Ti	      0.00476      6.57060      0.01279         4.932178     -0.351981      2.133201
Ti	      2.62957      8.75295      4.60493        -4.830757     -0.558107     -0.671726
Ti	      4.37435      2.19137      0.05691         0.621291      0.509064      1.153394
Ti	      6.52563      4.37286      4.52772         0.865346      0.541449     -0.091572
Ti	      4.37544      6.57045      0.06617         0.789969     -0.462509      1.421648
Ti	      6.52527      8.75419      4.53626         0.479511     -1.429875      0.736099
Ti	      8.73996      2.19226      0.00831        -0.033335      0.324766      1.826683
Ti	     10.97438      4.37337      4.53213        -0.065845      0.556391     -0.236136
Ti	      8.74024      6.57092      0.01651        -0.221538     -0.568231      2.935797
Ti	     10.97340      8.75312      4.53263         0.389369     -1.350174      0.497525
O	      2.18183      2.19187      0.01541         1.326035      0.278962      1.691415
O	      4.38907      4.37316      4.57103         4.303324      0.481636      0.226582
O	      2.18216      6.57058      0.02322         1.362879      0.090461      1.821018
O	      4.38896      8.75421      4.57802         3.700307     -0.121274      0.295690
O	      6.56501      2.19143      0.01336         0.403742      0.432140      1.278886
O	      8.74614      4.37306      4.67780         0.140122     -0.103035      1.018244
O	      6.56634      6.57026      0.02227         0.559280      0.135487      1.424138
O	      8.74881      8.75211      4.68589         0.066454     -0.479929      0.936883
O	     10.93275      2.19191      0.03416        -3.741612      0.650835      0.706414
O	     13.10821      4.37256      4.56632        -1.051723      0.340111      0.841016
O	     10.93413      6.56969      0.04248        -3.571604      0.099585      0.757773
O	     13.10732      8.75249      4.57536        -0.546961     -0.151524      0.946451
O	      4.37233      2.18814      2.31590         0.538458      0.707335     -0.752947
O	      6.61510      4.36770      6.78949         0.816551      0.317901     -1.195874
O	      4.37310      6.56621      2.32427         0.520752      0.140334     -0.659378
O	      6.61703      8.74785      6.79700         0.701205     -0.210006     -0.999243
O	      8.75096      2.18607      2.28705        -0.221309      0.689814     -0.429260
O	     10.87918      4.36723      6.79388        -0.364886      0.337714     -1.218679
O	      8.75194      6.56792      2.29537        -0.139038      0.137235     -0.179347
O	     10.87993      8.74697      6.79981        -0.369411     -0.296421     -0.924700
O	     13.11875      2.18513      2.27476        -3.892948      0.894570      0.146282
O	     15.30796      4.36683      6.87410        -5.867743      0.668507     -0.795884
O	     13.11825      6.56745      2.28276        -3.454890      0.090011      0.286805
O	     15.30829      8.74663      6.88279        -5.446613     -0.124445     -0.788460
O	      0.15941      0.14964      0.30071        -0.063747      0.458627     -2.081143
O	      2.62469      2.48014      4.56714        -2.068724     -1.651527     -0.249836
O	      0.16015      4.52959      0.31031         0.027196     -0.595531     -2.317189
O	      2.62559      6.56304      4.57464        -2.099804     -0.021097     -0.506123
O	      4.52083      0.14888      0.28007        -0.740690      0.303241     -1.821540
O	      6.56650      2.18324      4.55840        -0.254247      1.595571     -0.730794
O	      4.52275      4.52873      0.28879        -0.638816     -0.498910     -2.130317
O	      6.56710      6.56269      4.56613        -0.205459     -0.216665     -0.882210
O	      8.88109      0.14939      0.30465        -0.598583      0.328661     -2.256537
O	     10.93398      2.18609      4.55867         0.097563      1.610641     -0.689529
O	      8.88186      4.52917      0.31625        -0.419726     -0.444080     -2.570401
O	     10.93479      6.55962      4.56751         0.104571     -0.291037     -0.893130
O	      2.19313      4.37808      2.30643         2.236718      0.326606      0.936732
O	      4.36184      6.55858      6.84735         1.159292      0.289876     -0.391224
O	      2.19463      8.75726      2.31486         2.258164     -1.727598      0.566803
O	      4.36270     10.93815      6.85549         1.358805     -2.353510     -1.109397
O	      6.56385      4.37694      2.29521         0.026542      0.298999      1.261004
O	      6.56385      8.75657      2.30347         0.102307     -1.602512      0.759133
O	     10.92519      4.37698      2.30382         0.096715      0.248204      1.419806
O	     13.13145      6.55718      6.85088        -0.089586      0.267555     -0.217338
O	     10.92665      8.75677      2.30148         0.099065     -1.488736      0.972970
O	     13.13244     10.93772      6.85900         0.015232     -1.921512     -1.141206
