# total energy = -678.61219909 eV
 
CRYSTAL
PRIMVEC
12.739302 -0.001802 0.002488 
0.001610 8.504226 0.016490 
4.247020 4.235202 8.847036 
PRIMCOORD
94 1
Li	      2.37956      4.59308      0.36153        -0.252135     -0.210056     -0.557645
Li	      4.41025      6.62661      4.62452         1.758312      0.010631     -0.262669
Li	      2.37865      0.17116      0.35408        -0.293197      0.048149     -0.784668
Li	      4.40941      2.54513      4.61571         1.799211     -0.932546     -0.390323
Li	      6.62242      4.42338      0.01000         0.133896      0.216152      0.558271
Li	      8.82863      6.62670      4.49802        -0.003624     -0.017745     -0.257240
Li	      6.79157      0.17021      0.35344        -0.391904      0.061962     -0.662740
Li	      8.82813      2.20518      4.48936         0.003404      0.597385     -0.354774
Li	     11.03954      4.42319      0.04078        -0.586059      0.218504      1.210299
Li	     13.25947      6.62638      4.61931        -0.184507      0.014786      0.386708
Li	     11.03850      0.34125      0.02890        -0.736160     -0.878185      0.945115
Li	     13.25902      2.54381      4.61222        -0.143514     -0.786284      0.221871
Li	      4.40088      4.41896      2.32412         0.301452      0.113598     -0.470794
Li	      6.57843      6.62143      6.93768        -0.212983     -0.008362     -0.338348
Li	      4.40167      8.84102      2.33084         0.232393     -0.632653     -0.191245
Li	      6.57961     11.04318      6.94743        -0.106260     -0.730974     -0.032330
Li	      8.83180      4.41960      2.27232         0.023243      0.072103      0.105203
Li	     11.08787      6.62271      6.94238        -0.097636     -0.119933     -0.493596
Li	      8.82820      8.84215      2.27838         0.131655     -0.663990      0.300082
Li	     11.08871     11.04262      6.95081        -0.199304     -0.683505     -0.113962
Li	     13.26515      4.41863      2.29604        -1.911609      0.090670      0.048806
Li	     15.45550      6.62068      6.92066        -2.355577      0.051086     -1.084309
Li	     13.27071      8.84062      2.30389        -1.988893     -0.733466      0.302418
Li	     15.45597     11.04273      6.92826        -2.420815     -0.754036     -0.675444
Ti	      2.21456      2.20897      2.30365         5.234323      2.028334     -0.558943
Ti	      4.37660      4.41062      6.91206         8.546217      2.474838      0.597147
Ti	      2.21593      6.63067      2.31304         5.008988     -0.173348      0.351530
Ti	      4.37692      8.83326      6.91939         8.222530     -0.298178      0.759759
Ti	      6.61246      2.20761      2.31626         0.103958      2.057942     -0.331590
Ti	      8.83205      4.40993      6.94803        -0.185838      0.319904     -0.795404
Ti	      6.61254      6.63093      2.32417         0.115313     -0.767894      0.332678
Ti	      8.83428      8.83183      6.95647        -0.527426     -0.252959     -0.434902
Ti	     11.04596      2.20308      2.33059        -1.207103      1.987000      0.825215
Ti	     13.28566      4.41006      6.91193        -1.101172      2.135479     -0.276691
Ti	     11.04704      6.63538      2.33817        -1.353229     -0.477821      1.193747
Ti	     13.28709      8.83156      6.92194        -1.124451     -0.051760     -0.279761
Ti	      0.00484      2.21437      0.00490         7.446926      0.489680      1.639996
Ti	      2.71417      4.41667      4.64019        -6.511646      1.977557     -0.998929
Ti	      0.00481      6.63423      0.01292         6.448001     -0.438073      2.570411
Ti	      2.71659      8.83772      4.64955        -6.207131     -0.637490     -0.761621
Ti	      4.41671      2.21259      0.05747         0.713247      0.405419      1.246725
Ti	      6.58883      4.41521      4.57158         1.024172      0.735576     -0.018436
Ti	      4.41781      6.63407      0.06680         0.783482     -0.519179      1.569004
Ti	      6.58846      8.83899      4.58020         0.661184     -1.766300      0.800487
Ti	      8.82461      2.21349      0.00839        -0.212282      0.229405      2.174204
Ti	     11.08068      4.41573      4.57603        -0.098620      0.704783     -0.204039
Ti	      8.82488      6.63457      0.01667        -0.293719     -0.702537      3.339495
Ti	     11.07967      8.83789      4.57653         0.453494     -1.581959      0.637336
O	      2.20296      2.21311      0.01556         1.436158      0.275281      1.943023
O	      4.43158      4.41552      4.61530         5.503954      0.600137      0.248609
O	      2.20330      6.63422      0.02345         1.532365      0.104495      2.041073
O	      4.43146      8.83900      4.62236         4.815005     -0.115225      0.331273
O	      6.62859      2.21266      0.01349         0.409711      0.464268      1.422626
O	      8.83085      4.41541      4.72311         0.189129     -0.117439      1.111046
O	      6.62994      6.63389      0.02249         0.686533      0.150256      1.639180
O	      8.83354      8.83688      4.73128         0.082123     -0.565499      1.040815
O	     11.03864      2.21314      0.03449        -4.944346      0.740494      0.766497
O	     13.23516      4.41491      4.61055        -1.175251      0.396977      0.936941
O	     11.04003      6.63332      0.04289        -4.822044      0.115342      0.811726
O	     13.23426      8.83727      4.61968        -0.615232     -0.151162      0.993658
O	      4.41468      2.20933      2.33832         0.568267      0.821017     -0.767133
O	      6.67916      4.41000      6.85525         0.845283      0.367888     -1.336802
O	      4.41545      6.62981      2.34678         0.686615      0.162117     -0.720443
O	      6.68112      8.83258      6.86283         0.751645     -0.231913     -1.124179
O	      8.83572      2.20724      2.30920        -0.199305      0.811394     -0.430099
O	     10.98454      4.40953      6.85968        -0.336292      0.381317     -1.340862
O	      8.83671      6.63153      2.31760        -0.221724      0.158812     -0.213955
O	     10.98529      8.83168      6.86566        -0.431509     -0.322582     -1.052377
O	     13.24582      2.20630      2.29679        -5.025339      1.050434      0.186175
O	     15.45623      4.40912      6.94068        -7.649924      0.791232     -0.879981
O	     13.24531      6.63106      2.30487        -4.500630      0.109473      0.363451
O	     15.45655      8.83133      6.94945        -7.057900     -0.131389     -0.869278
O	      0.18146      0.17155      0.34636        -0.122090      0.486100     -2.333944
O	      2.71167      2.54523      4.61146        -2.573571     -1.940114     -0.196342
O	      0.18221      4.59392      0.35605         0.007104     -0.526567     -2.596309
O	      2.71256      6.62659      4.61896        -2.604229     -0.024478     -0.506923
O	      4.58514      0.17078      0.32552        -0.832804      0.329879     -2.027293
O	      6.63010      2.20438      4.60255        -0.299808      1.863398     -0.801187
O	      4.58707      4.59305      0.33433        -0.707489     -0.417560     -2.370407
O	      6.63070      6.62625      4.61036        -0.238068     -0.245737     -0.973450
O	      8.98761      0.17130      0.35034        -0.637543      0.320266     -2.558763
O	     11.03988      2.20726      4.60282         0.124041      1.813044     -0.778662
O	      8.98840      4.59350      0.36205        -0.408181     -0.306152     -2.858708
O	     11.04069      6.62316      4.61175         0.129214     -0.276970     -1.011654
O	      2.21437      4.42049      2.32877         2.774181      0.328373      1.035419
O	      4.40408      6.62210      6.91366         1.507002      0.306790     -0.452175
O	      2.21588      8.84208      2.33728         2.805513     -2.032333      0.636520
O	      4.40496     11.04409      6.92189         1.748216     -2.817784     -1.322057
O	      6.62742      4.41934      2.31745         0.037585      0.261118      1.408503
O	      6.62742      8.84138      2.32577         0.114027     -1.763086      0.826981
O	     11.03100      4.41937      2.32614         0.117029      0.252475      1.566173
O	     13.25864      6.62069      6.91724        -0.065400      0.308421     -0.314786
O	     11.03248      8.84158      2.32377         0.122037     -1.740823      1.074772
O	     13.25964     11.04365      6.92544         0.037335     -2.265698     -1.332795
