# total energy = -671.58892329 eV
 
CRYSTAL
PRIMVEC
12.800549 -0.001811 0.002500 
0.001618 8.545111 0.016569 
4.267439 4.255563 8.889570 
PRIMCOORD
94 1
Li	      2.42301      4.65781      0.40775        -0.263507     -0.207086     -0.646284
Li	      4.45276      6.69047      4.66909         2.290261      0.014137     -0.297470
Li	      2.42210      0.19327      0.40023        -0.312711      0.047775     -0.918813
Li	      4.45192      2.61075      4.66028         2.335715     -1.088487     -0.429266
Li	      6.68625      4.46601      0.01010         0.138951      0.235541      0.644955
Li	      8.91373      6.69056      4.54137        -0.004903     -0.025318     -0.281591
Li	      6.87754      0.19232      0.39958        -0.424218      0.069400     -0.783210
Li	      8.91323      2.22643      4.53263         0.003193      0.695700     -0.390995
Li	     11.14595      4.46583      0.04117        -0.685566      0.234937      1.398184
Li	     13.38728      6.69024      4.66384        -0.201744      0.014288      0.441175
Li	     11.14490      0.38563      0.02926        -0.886348     -1.041417      1.085082
Li	     13.38683      2.60941      4.65675        -0.145146     -0.896105      0.260845
Li	      4.44330      4.46155      2.34653         0.339731      0.124265     -0.530020
Li	      6.64184      6.68525      7.00454        -0.241982     -0.005336     -0.400203
Li	      4.44409      8.92622      2.35330         0.266015     -0.737552     -0.232507
Li	      6.64302     11.14962      7.01439        -0.121616     -0.833005     -0.041230
Li	      8.91692      4.46221      2.29423         0.018785      0.072856      0.151129
Li	     11.19475      6.68654      7.00930        -0.125919     -0.132083     -0.571117
Li	      8.91329      8.92737      2.30033         0.139638     -0.759726      0.358655
Li	     11.19559     11.14906      7.01781        -0.239661     -0.781772     -0.134596
Li	     13.39300      4.46122      2.31817        -2.476057      0.106066      0.050008
Li	     15.60448      6.68450      6.98737        -3.004495      0.072847     -1.320269
Li	     13.39863      8.92583      2.32610        -2.574561     -0.869812      0.320559
Li	     15.60495     11.14917      6.99503        -3.081489     -0.874744     -0.860731
Ti	      2.23590      2.23026      2.32585         6.758357      2.427415     -0.753493
Ti	      4.41878      4.45313      6.97868        11.009401      3.019661      0.726897
Ti	      2.23729      6.69457      2.33534         6.483732     -0.253509      0.289960
Ti	      4.41911      8.91841      6.98608        10.562195     -0.308921      0.885938
Ti	      6.67619      2.22889      2.33858         0.047785      2.394678     -0.432142
Ti	      8.91718      4.45244      7.01500        -0.174505      0.366538     -0.897048
Ti	      6.67627      6.69484      2.34658         0.064499     -0.891202      0.379139
Ti	      8.91944      8.91695      7.02352        -0.581226     -0.283394     -0.531755
Ti	     11.15244      2.22431      2.35306        -1.357367      2.334043      0.949472
Ti	     13.41371      4.45256      6.97855        -1.271667      2.548347     -0.332933
Ti	     11.15352      6.69934      2.36071        -1.517019     -0.556172      1.351706
Ti	     13.41515      8.91669      6.98866        -1.303344     -0.036462     -0.322580
Ti	      0.00488      2.23570      0.00495         9.487318      0.441090      1.816173
Ti	      2.80187      4.45923      4.68493        -8.241007      2.331924     -1.153281
Ti	      0.00485      6.69818      0.01304         8.334410     -0.544037      2.992427
Ti	      2.80431      8.92289      4.69437        -7.808847     -0.709585     -0.848607
Ti	      4.45928      2.23392      0.05802         0.764480      0.307742      1.407220
Ti	      6.65235      4.45777      4.61564         1.193066      0.836894     -0.041297
Ti	      4.46039      6.69801      0.06744         0.815948     -0.568550      1.805947
Ti	      6.65197      8.92417      4.62434         0.840631     -2.062440      0.899660
Ti	      8.90966      2.23482      0.00847        -0.353339      0.139886      2.315442
Ti	     11.18748      4.45829      4.62013        -0.125061      0.817492     -0.192280
Ti	      8.90995      6.69852      0.01684        -0.434411     -0.829682      3.790414
Ti	     11.18646      8.92307      4.62064         0.470775     -1.849834      0.778515
O	      2.22421      2.23443      0.01571         1.587236      0.263739      2.158500
O	      4.47429      4.45807      4.65978         7.021612      0.737360      0.259907
O	      2.22453      6.69816      0.02367         1.705969      0.117905      2.251538
O	      4.47417      8.92419      4.66691         6.203703     -0.107841      0.331275
O	      6.69248      2.23398      0.01362         0.457038      0.495951      1.561651
O	      8.91595      4.45797      4.76863         0.227221     -0.137541      1.197511
O	      6.69384      6.69784      0.02271         0.793161      0.173520      1.804677
O	      8.91869      8.92206      4.77688         0.089103     -0.657527      1.139160
O	     11.14503      2.23447      0.03483        -6.563823      0.832154      0.849899
O	     13.36273      4.45746      4.65499        -1.282991      0.464614      1.002393
O	     11.14644      6.69725      0.04330        -6.424245      0.124479      0.846291
O	     13.36183      8.92245      4.66420        -0.637913     -0.140615      1.055547
O	      4.45724      2.23063      2.36087         0.647320      0.949687     -0.784153
O	      6.74354      4.45250      6.92132         0.914326      0.437330     -1.469442
O	      4.45801      6.69371      2.36940         0.844774      0.182516     -0.748635
O	      6.74552      8.91771      6.92898         0.832023     -0.262751     -1.213724
O	      8.92088      2.22852      2.33145        -0.201693      0.940997     -0.495484
O	     11.09041      4.45202      6.92579        -0.356294      0.449086     -1.460712
O	      8.92188      6.69545      2.33994        -0.274484      0.185513     -0.223404
O	     11.09118      8.91680      6.93183        -0.495643     -0.369263     -1.149570
O	     13.37348      2.22756      2.31892        -6.507857      1.226568      0.244427
O	     15.60520      4.45162      7.00758        -9.888322      0.927683     -0.950468
O	     13.37297      6.69497      2.32709        -5.880481      0.132673      0.464902
O	     15.60554      8.91646      7.01643        -9.135347     -0.154804     -0.942047
O	      0.20373      0.19367      0.39244        -0.178826      0.470797     -2.535760
O	      2.79936      2.61084      4.65600        -3.164361     -2.276953     -0.156000
O	      0.20449      4.65866      0.40222        -0.017622     -0.424758     -2.823996
O	      2.80024      6.69045      4.66349        -3.201331     -0.014645     -0.498618
O	      4.64986      0.19289      0.37140        -0.934805      0.347369     -2.228964
O	      6.69401      2.22564      4.64691        -0.327012      2.058368     -0.859414
O	      4.65180      4.65777      0.38028        -0.765773     -0.325298     -2.608458
O	      6.69461      6.69012      4.65480        -0.267297     -0.223287     -1.034507
O	      9.09476      0.19341      0.39646        -0.668797      0.279431     -2.832469
O	     11.14629      2.22854      4.64718         0.134223      2.031102     -0.846090
O	      9.09555      4.65824      0.40828        -0.391176     -0.160756     -3.141889
O	     11.14710      6.68699      4.65619         0.153223     -0.283389     -1.081760
O	      2.23572      4.46310      2.35121         3.417812      0.329767      1.118324
O	      4.44653      6.68593      6.98031         1.968195      0.356489     -0.550285
O	      2.23724      8.92730      2.35981         3.466837     -2.389276      0.704013
O	      4.44742     11.15054      6.98860         2.257521     -3.336761     -1.550943
O	      6.69130      4.46193      2.33978         0.041107      0.260574      1.529070
O	      6.69130      8.92660      2.34819         0.132051     -1.986644      0.909304
O	     11.13732      4.46197      2.34856         0.122441      0.244996      1.717863
O	     13.38643      6.68450      6.98391        -0.061286      0.335889     -0.338415
O	     11.13882      8.92680      2.34617         0.138695     -1.978185      1.173436
O	     13.38744     11.15010      6.99219         0.064624     -2.633556     -1.550265
