# total energy = -703.23023273 eV
 
CRYSTAL
PRIMVEC
12.249329 -0.001733 0.002393 
0.001548 8.177140 0.015856 
4.083674 4.072309 8.506765 
PRIMCOORD
94 1
Li	      6.12664      8.16224      8.51384         0.014969      0.004332     -0.002029
Li	      4.07753      6.12667      4.27562        -0.000418      0.000015     -0.010151
Li	      6.12580      4.07393      8.50695         0.013630     -0.000014     -0.002984
Li	      4.07824     10.21575      4.28273        -0.005752      0.000949     -0.008364
Li	      6.12281      4.08966      0.00926        -0.017477      0.000779     -0.011487
Li	      8.16257      6.12676      4.15867         0.002200     -0.004127      0.008895
Li	     10.20580      4.07306      8.50635        -0.019362      0.005311     -0.013200
Li	      8.16212      2.03881      4.15066         0.003590     -0.002830      0.011735
Li	     10.20668      4.08949      0.03771         0.003830     -0.000078      0.001378
Li	     12.25913      6.12646      4.27082        -0.006068      0.001716     -0.007434
Li	     10.20720      8.17815      0.04197         0.006301      0.002100     -0.001960
Li	     12.26020     10.21452      4.27950        -0.004024     -0.001670     -0.008253
Li	      4.06887      4.08558      2.14878        -0.004019      0.001453      0.001457
Li	      6.08212      6.12189      6.41427         0.030997      0.002189      0.003250
Li	      4.06958      8.17401      2.15499        -0.006455      0.005033      0.005792
Li	      6.08322     10.21005      6.42329         0.030826      0.000782      0.004033
Li	      8.16549      4.08617      2.10089        -0.000932      0.001058     -0.024022
Li	     10.25137      6.12306      6.41863        -0.034049     -0.003404      0.002290
Li	      8.16217      8.17506      2.10649         0.001732     -0.004155     -0.026695
Li	     10.25213     10.20952      6.42641        -0.034818     -0.003334      0.002590
Li	     12.26438      4.08527      2.12282         0.003172     -0.000675      0.006466
Li	     14.28949      6.12119      6.39854         0.001867      0.000811      0.024815
Li	     12.26953      8.17365      2.13008         0.002620      0.000503      0.002307
Li	     14.28992     10.20963      6.40557         0.001664      0.001190      0.023599
Ti	      2.04747      2.04231      2.12985         0.000482      0.004902     -0.029362
Ti	      4.04641      4.07786      6.39058        -0.031982     -0.000433     -0.042255
Ti	      2.04876      6.13042      2.13854        -0.010102      0.003494     -0.049379
Ti	      4.04670      8.16685      6.39736        -0.027480     -0.001354     -0.041734
Ti	      6.11359      2.04106      2.14151        -0.015794      0.012047     -0.104975
Ti	      8.16572      4.07723      6.42385         0.004826      0.001185     -0.045844
Ti	      6.11365      6.13067      2.14883         0.000634     -0.014084     -0.097957
Ti	      8.16779      8.16552      6.43164         0.001936      0.003188     -0.043823
Ti	     10.21262      2.03687      2.15477         0.026553      0.016620     -0.105658
Ti	     12.28334      4.07734      6.39046         0.029482     -0.004055     -0.036524
Ti	     10.21360      6.13478      2.16177         0.014250     -0.012066     -0.090066
Ti	     12.28467      8.16528      6.39973         0.029176      0.005495     -0.034732
Ti	      0.00447      2.04730      0.00453        -0.025615     -0.004411      0.090922
Ti	     14.28760      4.08180      4.29242         0.011461     -0.012163      0.015830
Ti	      0.00444      6.13372      0.01195        -0.011929      0.005854      0.090266
Ti	     14.28984      8.16930      4.30106         0.006485      0.012285      0.014714
Ti	      4.08349      2.04567      0.05313         0.007104     -0.001603     -0.064248
Ti	      6.09174      4.08212      4.22668        -0.025584      0.000838      0.094714
Ti	      4.08452      6.13358      0.06176        -0.002033      0.005184     -0.076158
Ti	      6.09141      8.17214      4.23466        -0.030843     -0.008249      0.111558
Ti	      8.15884      2.04650      0.00776         0.016888     -0.000697      0.047307
Ti	     10.24471      4.08259      4.23079         0.016688     -0.001305      0.066886
Ti	      8.15911      6.13403      0.01541         0.026269     -0.000535      0.051432
Ti	     10.24379      8.17113      4.23126         0.028420     -0.005946      0.091503
O	      2.03676      2.04614      0.01439        -0.011167      0.000667      0.028318
O	      4.09725      4.08239      4.26711         0.003956      0.000440      0.027536
O	      2.03708      6.13371      0.02168        -0.005045      0.002652      0.039922
O	      4.09713      8.17215      4.27363         0.014666     -0.011490      0.026458
O	      6.12850      2.04573      0.01247         0.010760     -0.001952      0.052729
O	      8.16461      4.08229      4.36678         0.011784     -0.001799     -0.009338
O	      6.12975      6.13340      0.02079         0.002609      0.002855      0.048357
O	      8.16710      8.17019      4.37433         0.007511      0.005721     -0.022298
O	     10.20584      2.04617      0.03189         0.003197      0.000270     -0.026124
O	     12.23666      4.08183      4.26271        -0.009429      0.002882      0.018156
O	     10.20713      6.13288      0.03965        -0.007711     -0.002336     -0.027062
O	     12.23582      8.17054      4.27115        -0.010257     -0.001693      0.017341
O	      4.08162      2.04265      2.16192        -0.003765     -0.005948      0.000791
O	      6.17526      4.07729      6.33806        -0.012606     -0.000337     -0.019677
O	      4.08233      6.12963      2.16973        -0.004670      0.005630      0.007635
O	      6.17707      8.16621      6.34507        -0.013382     -0.003972     -0.014088
O	      8.16911      2.04072      2.13498        -0.013117     -0.002576     -0.005689
O	     10.15583      4.07685      6.34216         0.009072      0.001090     -0.029071
O	      8.17004      6.13122      2.14275        -0.017837      0.002404     -0.012143
O	     10.15652      8.16539      6.34769         0.016005      0.002500     -0.028878
O	     12.24650      2.03985      2.12351         0.008539      0.005340      0.003708
O	     14.29015      4.07648      6.41705         0.003636      0.002194     -0.008838
O	     12.24602      6.13079      2.13098         0.025734      0.000300      0.007435
O	     14.29045      8.16507      6.42516        -0.003146     -0.000213     -0.003497
O	      4.09438      4.07429      8.49981        -0.002303      0.002964     -0.012359
O	     14.28678     10.21418      4.28110        -0.002868     -0.007757     -0.008963
O	      4.09507      8.16302      8.50877        -0.004900     -0.004639     -0.007937
O	     14.28611      6.12499      4.27279        -0.002600      0.007053      0.000899
O	      8.16583      4.07357      8.48054        -0.008866      0.000496      0.042171
O	      6.12991      2.03808      4.25532        -0.007940     -0.003020     -0.036636
O	      8.16761      8.16221      8.48868        -0.015117      0.000892      0.036247
O	      6.13045      6.12635      4.26254        -0.010087      0.005809     -0.038762
O	     12.23617      4.07406      8.50349         0.013296     -0.000191      0.006665
O	     10.20699      2.04074      4.25557         0.000113     -0.010571     -0.027759
O	     12.23690      8.16263      8.51432         0.016123      0.003666     -0.011181
O	     10.20774      6.12348      4.26382         0.000076      0.009016     -0.035625
O	      2.04731      4.08699      2.15308        -0.018600     -0.010667      0.002247
O	      4.07182      6.12251      6.39208         0.021984      0.000503      0.016684
O	      2.04871      8.17499      2.16094        -0.018155     -0.000186      0.003881
O	      4.07263     10.21088      6.39967         0.020401      0.006343      0.018131
O	      6.12742      4.08592      2.14260        -0.006132      0.003274      0.049489
O	      6.12743      8.17435      2.15031        -0.004250     -0.004501      0.040617
O	     10.19878      4.08596      2.15065         0.022532     -0.002469      0.027869
O	     12.25836      6.12120      6.39537        -0.014676     -0.001913      0.012899
O	     10.20014      8.17454      2.14846         0.011888     -0.000523      0.035811
O	     12.25929     10.21048      6.40296        -0.018576     -0.008339      0.019484
