# total energy = -98.73838959 eV
 
CRYSTAL
PRIMVEC
-1.998819 4.083624 -1.999482 
1.916114 3.997896 1.912713 
5.873271 -0.041386 -1.956713 
PRIMCOORD
16 1
Li	      1.85472      3.80387      1.77117        -0.006592     -0.145515      0.708803
Li	      1.84995      1.88736     -0.03691        -0.004174     -0.488271      0.444382
Li	      3.67439      3.80589     -0.02560         0.742247     -0.039317      1.071525
Li	      3.66980      1.88959     -1.83387         0.481060     -0.737386     -0.270557
Ti	      1.71390      5.74014      0.01668         1.301005      3.542163      1.967094
Ti	      1.91169      3.83271     -1.97875        -3.944374     -0.989095     -3.738043
Ni	      5.50815      3.79643     -1.86581         1.875094     -0.526224     -1.228977
Ni	      3.69694      5.73707     -1.95539         2.251790      2.801437     -1.295022
O	      1.81034      5.62500     -1.85270        -1.256917      4.508942     -2.399511
O	      1.81510      3.94757     -0.10962         0.791273     -2.836577      2.901056
O	      1.77506      2.04617     -1.88659         1.462848     -4.411603     -0.165885
O	      3.63409      3.85209     -1.89341         3.735289     -1.537178     -0.638889
O	     -0.00861      5.72045     -0.06889        -4.370118      2.242722      0.346749
O	      0.02988      3.72843     -1.89271        -3.631595      0.792191     -0.929631
O	      5.53854      3.74113      0.01036         1.464828      0.080078      0.983773
O	     -0.01436      1.95212     -0.07314        -0.891664     -2.256366      2.243133
