# total energy = -99.82522333 eV
 
CRYSTAL
PRIMVEC
-2.009339 4.105117 -2.010006 
1.926199 4.018938 1.922780 
5.904183 -0.041603 -1.967011 
PRIMCOORD
16 1
Li	      1.87430      3.84402      1.78986        -0.006833     -0.123861      0.601004
Li	      1.86947      1.90728     -0.03730        -0.017630     -0.422126      0.375738
Li	      3.71317      3.84606     -0.02587         0.658132     -0.028310      0.931581
Li	      3.70853      1.90954     -1.85323         0.409200     -0.639330     -0.240798
Ti	      1.73199      5.80072      0.01685         1.039598      3.032304      1.661620
Ti	      1.93186      3.87316     -1.99963        -3.444903     -0.859475     -3.190906
Ni	      5.56629      3.83650     -1.88550         1.632452     -0.459043     -1.019212
Ni	      3.73596      5.79762     -1.97602         1.938804      2.414875     -1.144320
O	      1.82945      5.68436     -1.87225        -1.055644      3.862393     -2.048756
O	      1.83425      3.98923     -0.11078         0.727590     -2.412587      2.497925
O	      1.79380      2.06777     -1.90650         1.312126     -3.786351     -0.123082
O	      3.67245      3.89275     -1.91340         3.173681     -1.328135     -0.550585
O	     -0.00870      5.78083     -0.06962        -3.748529      1.993442      0.311369
O	      0.03020      3.76778     -1.91269        -3.111146      0.698406     -0.847449
O	      5.59700      3.78061      0.01047         1.292290      0.081322      0.826301
O	     -0.01451      1.97272     -0.07392        -0.799187     -2.023523      1.959569
