# total energy = -100.76228254 eV
 
CRYSTAL
PRIMVEC
-2.019859 4.126610 -2.020529 
1.936284 4.039979 1.932847 
5.935095 -0.041821 -1.977310 
PRIMCOORD
16 1
Li	      1.89397      3.88437      1.80865        -0.007592     -0.104978      0.501040
Li	      1.88909      1.92730     -0.03769        -0.027338     -0.359782      0.313242
Li	      3.75215      3.88643     -0.02614         0.571056     -0.023787      0.800208
Li	      3.74746      1.92959     -1.87268         0.340289     -0.546794     -0.214030
Ti	      1.75018      5.86162      0.01703         0.813236      2.563712      1.391459
Ti	      1.95215      3.91382     -2.02062        -2.968029     -0.736321     -2.695155
Ni	      5.62472      3.87677     -1.90530         1.411513     -0.396941     -0.835101
Ni	      3.77519      5.85849     -1.99677         1.656016      2.056190     -0.998200
O	      1.84865      5.74404     -1.89190        -0.879627      3.265367     -1.723618
O	      1.85351      4.03111     -0.11194         0.658061     -2.027386      2.124930
O	      1.81263      2.08947     -1.92652         1.157101     -3.207970     -0.084841
O	      3.71100      3.93362     -1.93349         2.654143     -1.137864     -0.471209
O	     -0.00879      5.84151     -0.07035        -3.167885      1.753051      0.276155
O	      0.03052      3.80734     -1.93277        -2.633990      0.603679     -0.766343
O	      5.65576      3.82030      0.01058         1.130801      0.091456      0.697213
O	     -0.01466      1.99343     -0.07470        -0.707755     -1.791632      1.684252
