# total energy = -101.55972139 eV
 
CRYSTAL
PRIMVEC
-2.030379 4.148103 -2.031053 
1.946369 4.061021 1.942914 
5.966007 -0.042039 -1.987608 
PRIMCOORD
16 1
Li	      1.91375      3.92494      1.82754        -0.006993     -0.089109      0.411435
Li	      1.90883      1.94743     -0.03808        -0.029448     -0.300944      0.259318
Li	      3.79134      3.92702     -0.02641         0.486102     -0.018100      0.679211
Li	      3.78660      1.94974     -1.89224         0.281624     -0.460364     -0.186279
Ti	      1.76845      5.92284      0.01720         0.615817      2.135373      1.151606
Ti	      1.97254      3.95470     -2.04173        -2.512154     -0.621524     -2.244516
Ni	      5.68347      3.91727     -1.92520         1.197641     -0.334003     -0.667893
Ni	      3.81461      5.91967     -2.01762         1.396753      1.726444     -0.858167
O	      1.86796      5.80403     -1.91166        -0.727975      2.712618     -1.425926
O	      1.87287      4.07321     -0.11311         0.589099     -1.670513      1.775235
O	      1.83156      2.11130     -1.94664         1.003545     -2.674342     -0.048780
O	      3.74976      3.97470     -1.95368         2.174896     -0.957589     -0.399578
O	     -0.00888      5.90252     -0.07109        -2.629554      1.513194      0.242576
O	      0.03083      3.84710     -1.95296        -2.195136      0.508893     -0.684000
O	      5.71483      3.86020      0.01069         0.975429      0.095084      0.583532
O	     -0.01481      2.01425     -0.07547        -0.619646     -1.565118      1.412227
