# total energy = -92.17236891 eV
 
CRYSTAL
PRIMVEC
4.279491 0.015948 4.075741 
0.010728 4.067116 -4.070511 
0.025726 4.062914 4.066080 
PRIMCOORD
16 1
Li	      2.17532      8.13792      2.03262         0.001220      0.000604     -0.000472
Li	      4.31032      6.11297      6.10551         0.000356     -0.001797      0.002386
Li	      4.29192      2.04784      6.10823        -0.000191      0.001806     -0.002275
Li	      2.15459      2.04014      4.06913        -0.000293      0.000545      0.001260
Mn	      4.28962      4.08319      0.00492         0.005318      0.009954     -0.013217
Mn	      2.14468      2.04232      0.00201        -0.011999     -0.007097     -0.004140
Ni	      2.15781      4.07358      2.03475        -0.013878      0.002587      0.003646
Ni	      4.29715      4.08184      4.07268         0.000376     -0.003514      0.003492
O	      2.05802      3.98310     -0.06901         0.099053     -0.029315     -0.047281
O	      2.15189      2.14616      1.93443         0.005305     -0.114112     -0.050367
O	      4.11445      4.08126      1.96523         0.076639     -0.003340     -0.067642
O	      0.18577      1.97429      0.00540         0.041293     -0.070506      0.000062
O	      2.16256      6.00119      2.13537        -0.002386      0.112311      0.051127
O	      2.25663      4.16391      4.13883        -0.097277      0.034565      0.046427
O	      4.12806      6.17295      4.06438        -0.034977      0.065214      0.001181
O	      0.20014      4.06581      2.10433        -0.068561      0.002093      0.075813
