# total energy = -103.52673792 eV
 
CRYSTAL
PRIMVEC
-2.072460 4.234074 -2.073147 
1.986708 4.145187 1.983181 
6.089654 -0.042910 -2.028802 
PRIMCOORD
16 1
Li	      1.99390      4.08932      1.90408         0.004116     -0.038418      0.140808
Li	      1.98877      2.02899     -0.03968        -0.017502     -0.106886      0.085196
Li	      3.95012      4.09149     -0.02752         0.186732     -0.007294      0.257757
Li	      3.94519      2.03139     -1.97149         0.084890     -0.163090     -0.077823
Ti	      1.84252      6.17088      0.01793         0.072170      0.756660      0.453968
Ti	      2.05515      4.12033     -2.12724        -0.888674     -0.234047     -0.842836
Ni	      5.92149      4.08132     -2.00582         0.447085     -0.129440     -0.189534
Ni	      3.97437      6.16759     -2.10212         0.533563      0.629791     -0.352117
O	      1.94619      6.04711     -1.99172        -0.286804      0.920746     -0.471568
O	      1.95130      4.24380     -0.11784         0.301677     -0.534763      0.615613
O	      1.90827      2.19972     -2.02817         0.399438     -0.911003      0.052271
O	      3.90680      4.14116     -2.03550         0.594460     -0.397402     -0.153570
O	     -0.00926      6.14973     -0.07406        -0.802050      0.654055      0.109815
O	      0.03212      4.00822     -2.03475        -0.761894      0.156578     -0.352486
O	      5.95416      4.02187      0.01114         0.400325      0.103367      0.316231
O	     -0.01544      2.09861     -0.07864        -0.267533     -0.698855      0.408273
