# total energy = -103.75182176 eV
 
CRYSTAL
PRIMVEC
-2.082980 4.255566 -2.083671 
1.996793 4.166229 1.993248 
6.120566 -0.043128 -2.039101 
PRIMCOORD
16 1
Li	      2.01420      4.13094      1.92346         0.006755     -0.029235      0.090052
Li	      2.00901      2.04964     -0.04008        -0.007366     -0.064920      0.053651
Li	      3.99032      4.13313     -0.02780         0.115631     -0.005265      0.165519
Li	      3.98534      2.05207     -1.99156         0.047334     -0.097730     -0.055571
Ti	      1.86127      6.23370      0.01811        -0.014369      0.483152      0.331772
Ti	      2.07606      4.16226     -2.14889        -0.529616     -0.151666     -0.579213
Ni	      5.98176      4.12286     -2.02624         0.280794     -0.081315     -0.101826
Ni	      4.01482      6.23036     -2.12352         0.353761      0.404480     -0.235719
O	      1.96601      6.10865     -2.01199        -0.209589      0.558008     -0.280910
O	      1.97116      4.28700     -0.11904         0.229047     -0.309963      0.373337
O	      1.92769      2.22211     -2.04881         0.252237     -0.551455      0.071250
O	      3.94656      4.18331     -2.05622         0.277461     -0.287688     -0.107032
O	     -0.00935      6.21232     -0.07482        -0.415852      0.454835      0.074560
O	      0.03245      4.04901     -2.05546        -0.474201      0.072122     -0.268031
O	      6.01477      4.06280      0.01125         0.267596      0.102733      0.289458
O	     -0.01559      2.11997     -0.07944        -0.179623     -0.496092      0.178704
