# total energy = -103.88398887 eV
 
CRYSTAL
PRIMVEC
-2.093500 4.277059 -2.094194 
2.006878 4.187270 2.003315 
6.151478 -0.043346 -2.049399 
PRIMCOORD
16 1
Li	      2.03459      4.17277      1.94294         0.014061     -0.021841      0.045634
Li	      2.02936      2.07039     -0.04049         0.003615     -0.027670      0.025208
Li	      4.03073      4.17498     -0.02808         0.046903     -0.004841      0.079457
Li	      4.02570      2.07284     -2.01172         0.012672     -0.039127     -0.027889
Ti	      1.88012      6.29682      0.01829        -0.083717      0.234493      0.225912
Ti	      2.09709      4.20441     -2.17064        -0.187165     -0.076369     -0.344036
Ni	      6.04233      4.16461     -2.04676         0.120048     -0.038745     -0.028884
Ni	      4.05547      6.29345     -2.14502         0.191796      0.194552     -0.134249
O	      1.98592      6.17051     -2.03237        -0.146835      0.227880     -0.110454
O	      1.99113      4.33041     -0.12025         0.162553     -0.108501      0.155517
O	      1.94721      2.24461     -2.06956         0.107802     -0.223875      0.089390
O	      3.98653      4.22567     -2.07704        -0.017803     -0.189128     -0.056986
O	     -0.00944      6.27523     -0.07557        -0.054709      0.271231      0.044270
O	      0.03278      4.09001     -2.07627        -0.210478     -0.005817     -0.186255
O	      6.07568      4.10395      0.01137         0.133123      0.105957      0.270450
O	     -0.01575      2.14143     -0.08024        -0.091865     -0.298200     -0.047085
