# total energy = -103.89502556 eV
 
CRYSTAL
PRIMVEC
-2.114540 4.320045 -2.115242 
2.027047 4.229353 2.023449 
6.213302 -0.043782 -2.069996 
PRIMCOORD
16 1
Li	      2.07569      4.25707      1.98219         0.029519     -0.013319     -0.025945
Li	      2.07035      2.11222     -0.04130         0.033643      0.038165     -0.019937
Li	      4.11216      4.25933     -0.02865        -0.083520     -0.007366     -0.077854
Li	      4.10702      2.11472     -2.05236        -0.053956      0.069432      0.014778
Ti	      1.91810      6.42403      0.01866        -0.182214     -0.200264      0.055589
Ti	      2.13945      4.28935     -2.21450         0.447254      0.055873      0.045500
Ni	      6.16440      4.24874     -2.08810        -0.190817      0.034695      0.090430
Ni	      4.13740      6.42059     -2.18836        -0.102533     -0.175791      0.059102
O	      2.02603      6.29517     -2.07343        -0.050906     -0.343741      0.179344
O	      2.03135      4.41788     -0.12268         0.031014      0.235257     -0.227080
O	      1.98655      2.28996     -2.11136        -0.168351      0.363879      0.116491
O	      4.06706      4.31104     -2.11900        -0.528231     -0.018908      0.033710
O	     -0.00964      6.40199     -0.07710         0.596070     -0.058813     -0.021291
O	      0.03344      4.17264     -2.11822         0.258833     -0.162086     -0.021226
O	      6.19841      4.18685      0.01160        -0.120925      0.107182      0.264557
O	     -0.01607      2.18469     -0.08186         0.085122      0.075805     -0.466170
