# total energy = -103.78505907 eV
 
CRYSTAL
PRIMVEC
-2.125060 4.341537 -2.125765 
2.037132 4.250395 2.033516 
6.244214 -0.043999 -2.080295 
PRIMCOORD
16 1
Li	      0.05927      0.04914     -0.03156         0.040111     -0.005571     -0.053515
Li	      2.09100      2.13329     -0.04172         0.052112      0.069144     -0.041762
Li	      4.15318      4.30181     -0.02893        -0.144794     -0.009024     -0.150026
Li	      4.14799      2.13582     -2.07284        -0.083091      0.118874      0.036178
Ti	      1.93723      6.48810      0.01885        -0.214106     -0.387078     -0.011887
Ti	      2.16079      4.33213     -2.23659         0.740916      0.115705      0.205368
Ni	     -0.01833      4.33512     -0.02864        -0.337385      0.066782      0.135941
Ni	      4.17867      6.48464     -2.21018        -0.239475     -0.339459      0.149389
O	      2.04624      6.35796     -2.09411        -0.016123     -0.591427      0.303069
O	      2.05161      4.46196     -0.12390        -0.032807      0.377504     -0.395700
O	      2.00637      2.31280     -2.13242        -0.303746      0.624392      0.131498
O	      4.10763      4.35404     -2.14014        -0.747967      0.054085      0.069889
O	     -0.00973      6.46586     -0.07787         0.893368     -0.213097     -0.047246
O	      0.03377      4.21426     -2.13935         0.467668     -0.237574      0.058317
O	      6.26024      4.22861      0.01171        -0.245001      0.102809      0.272946
O	     -0.01623      2.20649     -0.08268         0.170320      0.253938     -0.662459
