# total energy = -103.60670352 eV
 
CRYSTAL
PRIMVEC
-2.135580 4.363030 -2.136289 
2.047217 4.271437 2.043583 
6.275126 -0.044217 -2.090593 
PRIMCOORD
16 1
Li	      0.06999      0.07077     -0.02175         0.048048     -0.003306     -0.080733
Li	      2.11175      2.15446     -0.04213         0.066066      0.097873     -0.055320
Li	      4.19440      4.34451     -0.02922        -0.203414     -0.013972     -0.216898
Li	      4.18916      2.15702     -2.09341        -0.108001      0.165262      0.057949
Ti	      1.95646      6.55250      0.01903        -0.236387     -0.556785     -0.069344
Ti	      2.18224      4.37513     -2.25879         1.019955      0.168990      0.341757
Ni	      0.01256      4.37793     -0.03927        -0.479133      0.096114      0.179443
Ni	      4.22015      6.54900     -2.23212        -0.364003     -0.492868      0.226605
O	      2.06655      6.42107     -2.11489         0.013033     -0.818294      0.415497
O	      2.07197      4.50624     -0.12513        -0.093479      0.509304     -0.555100
O	      2.02628      2.33575     -2.15359        -0.431989      0.863408      0.145931
O	      4.14840      4.39726     -2.16138        -0.943491      0.119829      0.108390
O	     -0.00983      6.53003     -0.07864         1.165468     -0.352947     -0.077917
O	      0.03411      4.25609     -2.16058         0.657607     -0.310663      0.140043
O	      6.32238      4.27058      0.01183        -0.371436      0.102984      0.290187
O	     -0.01639      2.22839     -0.08350         0.261156      0.425072     -0.850491
