# total energy = -103.36250708 eV
 
CRYSTAL
PRIMVEC
-2.146100 4.384523 -2.146812 
2.057302 4.292478 2.053650 
6.306038 -0.044435 -2.100892 
PRIMCOORD
16 1
Li	      0.08082      0.09261     -0.01185         0.059921     -0.001390     -0.103300
Li	      2.13261      2.17574     -0.04255         0.085216      0.124200     -0.068045
Li	      4.23583      4.38742     -0.02951        -0.261372     -0.017012     -0.279821
Li	      4.23054      2.17832     -2.11408        -0.136307      0.207669      0.077751
Ti	      1.97579      6.61721      0.01922        -0.250584     -0.710653     -0.118625
Ti	      2.20379      4.41834     -2.28110         1.282746      0.218404      0.459347
Ni	      0.04375      4.42095     -0.05001        -0.614020      0.121697      0.214365
Ni	      4.26182      6.61368     -2.25417        -0.481548     -0.627332      0.301885
O	      2.08696      6.48449     -2.13578         0.029802     -1.022794      0.515997
O	      2.09244      4.55075     -0.12637        -0.148645      0.626649     -0.698779
O	      2.04629      2.35882     -2.17486        -0.557848      1.081845      0.158793
O	      4.18937      4.44068     -2.18272        -1.127846      0.178918      0.145244
O	     -0.00993      6.59453     -0.07942         1.432898     -0.487284     -0.108683
O	      0.03444      4.29813     -2.18192         0.829974     -0.381238      0.219429
O	      6.38482      4.31276      0.01194        -0.492486      0.103395      0.317693
O	     -0.01655      2.25040     -0.08432         0.350099      0.584926     -1.033249
