# total energy = -101.82874902 eV
 
CRYSTAL
PRIMVEC
-2.188181 4.470494 -2.188907 
2.097641 4.376644 2.093917 
6.429686 -0.045306 -2.142086 
PRIMCOORD
16 1
Li	      0.12515      0.18210      0.02874         0.119885      0.010997     -0.167168
Li	      2.21707      2.26190     -0.04423         0.153161      0.212276     -0.112511
Li	      4.40356      4.56116     -0.03068        -0.471371     -0.036172     -0.499582
Li	      4.39807      2.26458     -2.19780        -0.232887      0.354994      0.152633
Ti	      2.05402      6.87926      0.01998        -0.245237     -1.182325     -0.261071
Ti	      2.29106      4.59331     -2.37143         2.200838      0.372866      0.756066
Ni	      0.17155      4.59514     -0.09399        -1.119812      0.202952      0.315493
Ni	      4.43060      6.87559     -2.34343        -0.914271     -1.070807      0.524990
O	      4.35778      2.27078     -0.03145         0.053565     -1.652169      0.813934
O	      2.17530      4.73096     -0.13137        -0.330875      0.960731     -1.159647
O	      2.12733      2.45223     -2.26098        -1.011261      1.796719      0.211459
O	      4.35527      4.61654     -2.26916        -1.667994      0.349987      0.280421
O	     -0.01032      6.85567     -0.08256         2.338586     -0.906956     -0.207085
O	      0.03581      4.46833     -2.26832         1.406786     -0.654783      0.516260
O	      6.63766      4.48355      0.01242        -0.983884      0.093039      0.481291
O	     -0.01721      2.33951     -0.08766         0.704772      1.148651     -1.645484
