# total energy = -46.20404281 eV
 
CRYSTAL
PRIMVEC
0.000001 0.000046 -4.040148 
-2.021010 4.320456 -2.020123 
4.041893 -0.000013 -0.000001 
PRIMCOORD
8 1
Li	      2.02068      2.15915     -4.03779        -0.000597      0.001159     -0.002376
Li	      2.02061      0.00359     -2.01760         0.000681     -0.000361      0.001473
Mn	      2.02066      4.32038     -6.05768        -0.000860      0.010815     -0.002550
Ni	     -0.00034      2.16145     -2.01762        -0.000206     -0.003492      0.000485
O	     -0.00020      4.21221     -2.01740        -0.000349      0.162359      0.001171
O	     -0.00014      1.92384     -4.03766        -0.001717     -0.048233     -0.001774
O	     -0.00048      0.11070     -2.01765        -0.000384     -0.165174      0.000482
O	      2.02057      2.39740     -2.01782         0.003432      0.042927      0.003090
