# total energy = -92.96509333 eV
 
CRYSTAL
PRIMVEC
4.151171 -0.038912 4.127578 
-0.039222 4.149056 -4.127258 
-0.039017 4.149450 4.127628 
PRIMCOORD
16 1
Li	      2.03713      4.13226      6.18845         0.005703     -0.003111      0.007810
Li	     -0.01621      2.07366      2.06516        -0.001942      0.007438     -0.005485
Li	      2.06061      2.05408      4.12538        -0.005111      0.006233      0.001274
Li	     -0.03461      4.14946      0.00184        -0.006446      0.002257      0.000350
Mn	     -0.03694      4.15156      4.12599        -0.005670     -0.007346      0.002193
Mn	      2.01847      6.20671      4.12667         0.005772      0.002590      0.000297
Ni	     -0.05670      6.22595      2.06260         0.000462      0.000164      0.000317
Ni	      2.03901      4.13207      2.06336        -0.002114     -0.002456     -0.002066
O	      2.15010      4.02122     -0.00807         0.032494     -0.035090     -0.107078
O	      2.08080      2.08037      1.92877        -0.105239     -0.110364     -0.053029
O	      4.09085      4.08904      1.92836         0.109470      0.110999     -0.054460
O	      0.09395      1.96550      0.00606         0.031443     -0.030982      0.107780
O	      1.99572      6.18378      2.19764         0.107166      0.107976      0.051319
O	      1.92610      4.24362      4.13378        -0.027905      0.029547      0.107290
O	      3.98195      6.29816      4.11977        -0.028733      0.032789     -0.108625
O	     -0.01339      4.17452      2.19680        -0.109349     -0.110645      0.052113
