# total energy = -101.32570870 eV
 
CRYSTAL
PRIMVEC
-2.198701 4.491987 -2.199430 
2.107726 4.397686 2.103984 
6.460598 -0.045524 -2.152384 
PRIMCOORD
16 1
Li	      0.13649      0.20500      0.03913         0.140140      0.014932     -0.178741
Li	      2.23843      2.28370     -0.04466         0.169554      0.232294     -0.117190
Li	      4.44601      4.60512     -0.03097        -0.518617     -0.039303     -0.545581
Li	      4.44046      2.28641     -2.21899        -0.258378      0.386805      0.168876
Ti	      2.07382      6.94556      0.02017        -0.234222     -1.268002     -0.287179
Ti	      2.31315      4.63758     -2.39428         2.396541      0.401843      0.793219
Ni	      0.20427      4.63920     -0.10525        -1.232304      0.214740      0.330625
Ni	      4.47330      6.94186     -2.36602        -1.014478     -1.158604      0.560532
O	      4.38922      2.31426     -0.04233         0.050459     -1.770992      0.866664
O	      2.19627      4.77656     -0.13264        -0.363709      1.019743     -1.248608
O	      2.14783      2.47587     -2.28278        -1.111099      1.938050      0.227193
O	      4.39725      4.66103     -2.29103        -1.766778      0.381485      0.312088
O	     -0.01042      6.92175     -0.08336         2.531769     -0.990683     -0.227076
O	      0.03615      4.51140     -2.29019         1.523177     -0.721387      0.586312
O	      6.70164      4.52676      0.01254        -1.103068      0.088019      0.531158
O	     -0.01737      2.36206     -0.08851         0.791013      1.271059     -1.772292
