# total energy = -207.72465942 eV
 
CRYSTAL
PRIMVEC
-0.025467 6.419188 6.257614 
6.060710 -0.020962 6.253776 
4.042604 4.279218 -0.016600 
PRIMCOORD
36 1
Li	      6.06859      4.34409      2.17156        -0.055739      0.048070      0.096972
Li	      3.97381      2.21586      2.19835        -0.022575     -0.000974      0.098514
Li	      4.02271      0.06951      4.16120        -0.034646      0.101817      0.046414
Li	      5.97536      2.23440      4.09008        -0.041278      0.006644      0.038636
Li	      2.05422      4.15071      2.10265         0.009503      0.074759      0.032564
Li	      2.09910      2.09606      4.09170         0.075956     -0.035787     -0.074446
Li	      4.05702      4.06596      4.04746         0.011269     -0.054180     -0.073544
Li	      4.00543      2.10309      6.07216         0.045259     -0.060988     -0.080424
Li	      8.06687      6.42701     10.44020        -0.022627     -0.069222     -0.068424
Mn	      6.04785      4.25818      6.13923         0.172244     -0.004270     -0.186001
Mn	      2.06057      4.29040      6.24009        -0.273122     -0.202136      0.155090
Cr	      4.04082      6.39613      2.11678        -0.135601     -0.242280      0.060284
Fe	     10.02104      4.32269      6.31160         0.057760     -0.008318     -0.124072
Fe	     10.06910      8.55742     10.43545         0.417132      0.077063     -0.198747
Co	      6.09307      6.47062      8.36322        -0.282062     -0.412353      0.317211
Cu	      4.01508      6.38948      6.24711        -0.105188     -0.091222     -0.223374
Cu	      8.05468      8.55941      8.35435        -0.082386     -0.233267      0.039264
Ni	      2.04743      2.12425      0.06423        -0.073396      0.034603     -0.025632
O	      4.17139      6.28169      8.25117         0.311000     -0.025255      0.002637
O	      8.22519      8.51489     10.57221        -0.561509     -0.018946     -0.398419
O	      1.94241      2.11535      2.03477        -0.058146      0.016463      0.129230
O	      3.99414      4.41708      2.02563         0.074666      0.084445     -0.047624
O	      4.05139      2.09692      4.10613         0.041982      0.005354      0.102353
O	      6.06786      4.25154      4.29418        -0.027939      0.026580      0.121128
O	      6.06771      2.03257      6.33782        -0.034385     -0.034015      0.060447
O	      8.04452      4.20466      6.26516        -0.060988      0.013809     -0.013769
O	      1.87517      4.29486      4.31579         0.213755      0.012165      0.067154
O	      4.03551      6.65827      4.12099         0.000215     -0.147846      0.077886
O	      3.98822      4.16820      6.08368         0.160670      0.178733      0.327849
O	      5.97990      6.53453      6.28459         0.098084      0.059050      0.326575
O	      6.01676      4.20385      8.24534        -0.020184     -0.148200     -0.033831
O	      7.99437      6.49412      8.36069         0.026065      0.392697     -0.056743
O	      2.02831      6.30236      6.27613        -0.036570      0.028904      0.089826
O	      4.10869      8.72176      6.28291         0.011487      0.003157     -0.035211
O	      6.09763      8.49228      8.18788         0.178375      0.385905     -0.254319
O	      6.03707      6.21581     10.43259         0.022918      0.239041     -0.295454
