# total energy = -212.63643465 eV
 
CRYSTAL
PRIMVEC
0.026264 6.143039 6.278643 
6.160073 -0.019465 6.323979 
4.095702 4.114815 -0.002005 
PRIMCOORD
36 1
Li	      6.17949      4.12950      2.19814        -0.028871     -0.022981     -0.034147
Li	      8.24159     10.21777     10.48201         0.043911     -0.059758      0.054832
Li	      6.15961      2.07350      4.31888         0.051706     -0.000558      0.201353
Li	      6.17924      2.07559      8.42889         0.017463      0.019153     -0.162536
Li	      8.17826      6.14902      6.28382         0.051427      0.011679     -0.013147
Li	      6.20036      4.08799      6.28603         0.064647     -0.212227      0.024425
Li	      6.14140      4.12945     10.40996        -0.054585      0.076781      0.021105
Li	      4.14742      6.11875      6.30396        -0.047524      0.023072     -0.013050
Li	      6.16213      6.09903      8.46284        -0.006698      0.029276      0.098994
Mn	      2.09561      4.04107      6.25538         0.003534     -0.012595      0.065636
Mn	      4.20809      4.15635      8.38925         0.010732     -0.048803      0.051402
Cr	      4.15635      8.13704      8.42555         0.018994     -0.050868     -0.021494
Fe	      6.11965      0.04276      6.26430        -0.089745      0.041950      0.068114
Fe	      8.24092      6.19891     10.46748        -0.093635      0.086589      0.008259
Co	      2.03611      2.05488      0.02277         0.024516     -0.066793     -0.031547
Co	      4.11559      4.07143      4.18173         0.042999      0.039994      0.005859
Cu	      6.10551      6.08553      4.19023        -0.006432     -0.012547     -0.028639
Ni	      8.14885      4.13113      8.39077        -0.107626      0.036563     -0.021490
O	      6.14580      6.29778      6.15519        -0.007877      0.113023      0.093543
O	      2.13058      2.08360      2.04704         0.040635     -0.117417     -0.191469
O	      4.06087      4.00191      2.20294         0.096206      0.000839      0.017054
O	      4.06400      2.12955      4.11870        -0.035369      0.002583      0.034602
O	      5.99300      4.14862      4.23234        -0.096697     -0.105848     -0.042541
O	      6.29906      1.95952      6.37890         0.193870      0.213962     -0.014511
O	      8.24062      3.98403      6.37025         0.030720     -0.215884     -0.119032
O	      2.11156      4.09308      4.23940         0.069347      0.007461      0.104077
O	      4.08251      6.00911      4.17813         0.081948     -0.051268      0.007507
O	      3.97732      4.06868      6.14237        -0.110980      0.020714     -0.023575
O	      6.10046      4.12668      8.37610        -0.118877     -0.004771      0.045265
O	      8.22250      6.24988      8.49748        -0.013489      0.083917     -0.114553
O	      2.03504      6.09960      6.21399         0.069002      0.025196      0.084675
O	      4.15305      8.23638      6.39644         0.091025     -0.001018     -0.024314
O	      4.12795      6.09814      8.43118        -0.023547      0.046260     -0.058631
O	      6.23961      8.18762      8.16612        -0.086140      0.005743     -0.065943
O	      6.26092      6.13328     10.59723        -0.085647     -0.020551     -0.104415
O	      8.26171      8.14445     10.67564         0.011054      0.119130      0.098329
