# total energy = -212.63011057 eV
 
CRYSTAL
PRIMVEC
-0.033710 6.334640 6.071859 
6.246639 -0.017028 6.055350 
4.158008 4.205720 -0.005227 
PRIMCOORD
36 1
Li	      6.21135      4.19308      2.03973        -0.059972     -0.030934      0.020802
Li	      4.16880      2.10087      2.04130         0.017416      0.045023      0.037385
Li	      2.04321      2.17485      4.02362        -0.011652      0.015841      0.001738
Li	      4.13241      4.20461      4.03646         0.020855     -0.006552     -0.019611
Li	      8.25559      6.37878      6.07478        -0.048145      0.067496     -0.016595
Li	      6.19376      4.19862      6.08551        -0.090262      0.097013     -0.032759
Li	      0.04383      4.12905      3.99556        -0.004393     -0.011641     -0.010687
Li	      2.09676      6.27733      3.99505        -0.020761     -0.025416     -0.007715
Li	      4.16876      4.17160      8.06794        -0.005617     -0.015598      0.009191
Mn	      6.21402      2.13846      4.01110        -0.085885     -0.214227     -0.243633
Mn	      2.06155      4.21490      6.01488         0.090269      0.050213      0.359529
Cr	     10.33871      6.35339      8.11464        -0.207077     -0.185448      0.037282
Fe	      4.11285      0.04557      3.94728         0.146676      0.005461      0.037086
Fe	      4.15012      6.28737      6.00449        -0.046835     -0.175294      0.163686
Co	      4.14375     10.51758      6.08916        -0.113403      0.341343     -0.237362
Co	      2.07723      2.11511      0.02524         0.757591      0.041478      0.209525
Ni	      8.30147      4.22946      8.10357         0.141170      0.058874      0.186018
Ni	      6.28059      6.25724      8.09113         0.028792     -0.030751      0.063633
O	      1.99876      2.13926      1.88563         0.028575     -0.118883      0.223253
O	      4.11112      4.32379      1.89701         0.178256     -0.113010     -0.024819
O	      4.30473      2.04131      4.05258         0.076718      0.086549     -0.004257
O	      6.29433      4.04628      4.04980        -0.055830     -0.074816      0.059468
O	      6.33967      2.08704      6.00922        -0.652794     -0.964426      0.046961
O	      8.49861      4.11278      6.01650         0.259357      0.128507     -0.008794
O	      2.05135      4.20505      4.18673        -0.038075      0.034730     -0.559558
O	      4.15548      6.30525      4.05150        -0.020878      0.035085     -0.074471
O	      3.95589      4.31038      6.06679         0.005936     -0.064916     -0.009773
O	      6.16756      6.46848      6.06489         0.010508      0.066790     -0.109394
O	      6.26461      4.16469      8.07158        -0.017586     -0.095312     -0.019647
O	      8.35667      6.26886      8.07549         0.054535      0.047341      0.010285
O	      1.99952      6.22664      6.08416        -0.264795     -0.041288     -0.006198
O	      4.17234      8.38095      6.05959         0.058985      0.882536      0.012012
O	      4.18408      6.29823      8.07572        -0.099553      0.060815     -0.104051
O	      6.23168      8.34805      8.15112        -0.037976      0.137763      0.222345
O	      6.16592      6.47130     10.18773         0.102448      0.019877      0.182964
O	      8.17157      8.47866     10.25174        -0.096599     -0.054222     -0.393840
