# total energy = -214.74248930 eV
 
CRYSTAL
PRIMVEC
0.010285 6.173375 6.128848 
6.341426 0.007252 6.131806 
4.210184 4.100090 0.022672 
PRIMCOORD
36 1
Li	      2.16672      8.15513      6.14477         0.081148     -0.031934      0.017766
Li	      2.14090      6.13398      8.13637         0.018645     -0.001673      0.014660
Li	      4.24747      8.24013      8.17888        -0.018009     -0.077983     -0.050539
Li	      4.19639      4.10566      4.13755        -0.041056      0.030064      0.059304
Li	      8.34433      6.18503      6.19302         0.000424     -0.021512      0.022193
Li	      6.30307      4.20617      6.16408        -0.142079     -0.002987      0.028026
Li	      2.09028      6.15943      4.12934         0.042873     -0.003287     -0.020246
Li	      6.34681      8.23346      6.26375        -0.012575     -0.015252      0.058093
Li	      6.38554      6.20337      8.14564        -0.027106     -0.009869      0.010386
Mn	      4.25466      6.17272     10.22021        -0.057640     -0.036313     -0.128182
Mn	      6.30988      6.15465      4.13584        -0.115517      0.000098     -0.031113
Cr	      4.29242     10.19735      6.15104         0.039446     -0.149226      0.286020
Fe	      6.24905      2.14501      4.06966         0.021542     -0.073931      0.221884
Fe	      6.29344      2.06443      8.07305         0.137135      0.038751      0.057625
Co	      8.45348      4.10629      8.14805         0.035074      0.006215      0.040339
Co	      0.06281      4.11659      4.05282         0.016511     -0.019706      0.187012
Co	      4.13455      6.14798      6.23434         0.156093      0.561695     -0.273523
Cu	      8.39185      8.21384      8.15368        -0.031345     -0.136457     -0.161898
O	      6.25917      8.21932      8.38345        -0.080333     -0.060358     -0.277937
O	      2.03524      2.14802      2.14553         0.033814     -0.031562      0.072296
O	      4.07113      4.14419      2.02585         0.077558     -0.031449     -0.106843
O	      4.10547      1.97500      4.12307        -0.136147      0.013686      0.052302
O	      6.26467      4.16740      4.12622         0.056437      0.129061      0.010807
O	      6.38314      1.97405      6.06140         0.004497     -0.024663     -0.024015
O	      8.59361      4.05168      6.12914         0.020300      0.081790      0.059967
O	      2.01007      4.00917      3.94495        -0.013570     -0.040691      0.008178
O	      4.34206      6.26898      4.09203         0.067469      0.024966      0.038009
O	      4.21611      4.25473      6.21595        -0.202294      0.048415      0.156388
O	      6.25680      6.20374      6.01624        -0.507267     -0.099641     -0.034312
O	      6.52728      4.07836      8.23722         0.119718      0.117449     -0.004755
O	      8.55459      6.09178      8.18804        -0.136575     -0.007690      0.002156
O	      2.12943      6.16049      6.15811         0.465604     -0.029530     -0.125127
O	      4.23885      8.16945      6.01634        -0.044702     -0.068022     -0.167208
O	      4.23609      6.16669      8.23503         0.065818     -0.045466     -0.049869
O	      6.42488      6.10354     10.27590         0.005936      0.007695     -0.049402
O	      8.58610      8.31464     10.13054         0.100173     -0.040684      0.101560
