# total energy = -214.31776031 eV
 
CRYSTAL
PRIMVEC
-0.003204 6.238487 6.254620 
6.162795 -0.000184 6.251455 
4.120650 4.169030 -0.012248 
PRIMCOORD
36 1
Li	      4.12713      4.18111      0.05170        -0.101564      0.001968      0.062724
Li	      6.12573      4.14425      2.08127        -0.006545      0.045553     -0.053703
Li	      4.19941      8.30057      8.31164         0.004218     -0.041656     -0.044013
Li	      4.12925      6.26419     10.39628         0.017339      0.024140      0.126737
Li	      8.20164      4.18111      8.27422        -0.014824      0.018612     -0.151168
Li	      8.22567      6.15389      6.24720        -0.025064     -0.100705      0.038882
Li	      6.23820      4.13221      6.28222         0.157521     -0.001376      0.037750
Li	      6.16283      4.21402     10.40763        -0.019945      0.040866      0.008220
Li	      6.14558      6.27161      8.33516         0.022711      0.020892      0.008161
Mn	      6.12332      2.11620      4.15187        -0.103618      0.013830      0.020043
Mn	      2.03912      6.19758      4.14414         0.018178     -0.046795     -0.011444
Cr	      2.09852      2.03009      4.14386         0.007880      0.008628     -0.118864
Fe	      4.13222      6.29986      6.35086        -0.149133     -0.046899     -0.098036
Fe	      4.11623      4.20400      8.30578         0.030200     -0.153478      0.038923
Co	      8.21340      2.33625      6.29625        -0.215181     -1.264622      0.147838
Co	      4.12438      6.21782      2.07010        -0.076108     -0.069243     -0.097467
Co	      6.14784      8.30728      6.23308        -0.038619      0.139598      0.027508
Ni	      4.11043      4.12024      4.12976        -0.020207     -0.050743     -0.026561
O	      1.90299      2.07049      2.08552         0.150404      0.111258     -0.284882
O	      4.10051      4.38667      2.11018         0.058220      0.006110      0.019806
O	      4.12593      2.07186      4.13446         0.094198     -0.042979     -0.033823
O	      6.12828      4.12272      4.19937         0.038211     -0.028903     -0.067484
O	      6.25952      2.06441      6.44589         0.640408      0.382484     -0.107249
O	      8.26647      4.09619      6.26019        -0.102126      0.269367     -0.019405
O	      2.05281      4.04313      4.28528        -0.099337     -0.033319      0.061705
O	      4.11670      6.21397      4.08134         0.012495      0.082669      0.060370
O	      3.96075      4.20337      6.26927         0.034503      0.001430     -0.038657
O	      6.13094      6.34480      6.14073        -0.028721     -0.002931     -0.020509
O	      6.07370      3.96205      8.34518         0.021273      0.097710      0.089828
O	      8.34278      6.26828      8.43689        -0.088836      0.079589      0.080148
O	      2.11516      6.12845      6.09401        -0.008079      0.073037     -0.048369
O	      4.13539      8.25639      6.24564        -0.318398      0.131469     -0.016709
O	      4.14645      6.16825      8.26369         0.018337      0.084137      0.099287
O	      6.22927      8.32803      8.18970        -0.039390     -0.036299     -0.029964
O	      6.27270      6.40339     10.39204         0.044148      0.052162     -0.075943
O	      8.08660      8.37327     10.43570         0.085454      0.234439      0.416319
