# total energy = -217.18904685 eV
 
CRYSTAL
PRIMVEC
0.067735 6.189954 6.120103 
6.318377 0.049290 6.138998 
4.224076 4.150935 0.021179 
PRIMCOORD
36 1
Li	      2.08439      2.09467      0.09021        -0.017803     -0.006967     -0.004261
Li	      4.26244      8.24952      8.14248        -0.000121      0.010983     -0.018052
Li	      6.39836      2.19226      8.18098        -0.030552     -0.113212     -0.050959
Li	      8.32410      4.07723      8.15677         0.084117      0.055422     -0.023591
Li	      6.27493      6.27635      4.08991        -0.014581      0.005537      0.035540
Li	      6.38577      4.21037      6.33311        -0.007021      0.003004     -0.114810
Li	      4.42803      6.27008      6.20387         0.015834     -0.010731     -0.009499
Li	      4.31064      4.18874      8.09620        -0.039772     -0.012120     -0.028412
Li	      6.36947      6.19223      8.09345         0.050611     -0.013426     -0.008555
Mn	      4.19637      4.13058      0.09892        -0.053825      0.121947     -0.053514
Mn	      4.23458      4.15157      4.10747         0.083663      0.090934     -0.071346
Cr	      4.27946      6.20954     10.18365         0.002088     -0.094131      0.105677
Fe	      2.23846      6.28523      8.14542        -0.074790     -0.178982      0.029469
Fe	      8.47599      6.30251     10.00242         0.055195     -0.178555      0.198576
Co	      6.38735      8.28453     10.21449         0.024441      0.105765     -0.045359
Co	      8.44619      6.24957      6.19217         0.034543     -0.020009      0.112639
Co	      0.08209      4.03177      4.00072        -0.096514      0.152131     -0.191131
Co	      6.37731      8.27222      6.15578         0.015346     -0.018194      0.036639
O	      2.14103      1.95251      2.05579        -0.028003      0.220925     -0.036207
O	      4.31559      4.15502      2.18538         0.048203     -0.036080      0.110381
O	      4.36964      2.06778      4.21115         0.014617     -0.121084     -0.056952
O	      6.39721      4.03689      4.14739         0.141689      0.005176     -0.034397
O	      6.21400      2.01032      6.02860        -0.045090     -0.064323     -0.004239
O	      8.55871      4.26554      6.10868        -0.043696     -0.002467      0.012440
O	      2.14788      4.20718      4.19574        -0.208769     -0.014028      0.024680
O	      4.13470      6.17961      4.16433         0.002405      0.080471      0.094347
O	      4.11344      4.03698      6.07040        -0.007892      0.003912     -0.067722
O	      6.51802      6.36219      6.12403         0.003064     -0.008476      0.014167
O	      6.34875      4.15072      8.27356         0.032210      0.058484      0.098443
O	      8.46351      6.23944      8.13474         0.011560     -0.009435     -0.199476
O	      2.00106      6.10209      6.10116         0.045100      0.036577      0.040902
O	      4.40409      8.36366      6.03312         0.063615     -0.029378      0.132278
O	      4.19016      6.23762      8.22633         0.006374      0.003323     -0.064724
O	      6.37102      8.44192      8.18093         0.015822     -0.050091      0.086500
O	      6.34493      6.33943     10.15157        -0.082181     -0.018358     -0.049563
O	      8.34942      8.31984     10.27364         0.000112      0.045456      0.000090
