# total energy = -207.27436002 eV
 
CRYSTAL
PRIMVEC
-0.037275 6.153585 6.293375 
6.187039 -0.025981 6.282184 
4.130732 4.100816 -0.023315 
PRIMCOORD
36 1
Li	      2.06026      8.16123      6.28791        -0.005809      0.013768      0.011806
Li	      6.13644      8.21193     10.35732        -0.014004      0.010402     -0.003711
Li	      2.04127      4.14077      2.17739        -0.037995      0.003126      0.029919
Li	      6.21098      6.13222      4.22306         0.032151     -0.041586     -0.012551
Li	      4.04217      4.08637      4.29421         0.014100     -0.047545     -0.003534
Li	      2.07450      4.09561      6.32065         0.017851     -0.033444      0.014563
Li	      4.16007      6.04327      6.33368         0.040743     -0.020188      0.030838
Li	      8.17271      8.17659      8.29414         0.033496     -0.003049     -0.015121
Li	      6.16882      6.21246      8.24492         0.047690     -0.001193     -0.066144
Mn	      4.11202     10.23958      6.29429        -0.145542     -0.011242     -0.019689
Mn	      4.08385      2.07497      6.25314        -0.200217      0.151513     -0.108766
Cr	      0.01967      4.10511      4.19844         0.139526     -0.199703     -0.063951
Fe	      8.13544     10.20455     10.36526         0.126523     -0.011852      0.069532
Fe	      0.00883      2.07341      2.13516         0.036052     -0.028625     -0.008489
Cu	      8.23392      6.16245     10.47441         0.009512      0.053984      0.102169
Ni	      6.18048      4.06280      2.10242         0.073403      0.022749      0.135183
Ni	      4.11265      2.04583      2.09340        -0.097310     -0.003400      0.071321
Ni	      6.18426      4.08632      6.27910         0.004038      0.012052     -0.065135
O	      6.06132      8.32675      8.37084         0.032683     -0.330230     -0.027268
O	      1.99357      1.90629      2.13267         0.102405      0.221940     -0.034509
O	      4.06707      4.10149      1.93279        -0.026856      0.001384     -0.109495
O	      4.11825      1.94984      4.26369         0.056416      0.211914      0.115582
O	      6.25469      4.04113      4.13201        -0.235150      0.009645      0.095890
O	      6.09783      1.96208      6.31888         0.017414     -0.206863     -0.002401
O	      8.32366      4.16127      6.15709         0.188827      0.013911      0.035003
O	      1.97911      4.25467      4.19483        -0.012119     -0.070818      0.059528
O	      4.01992      6.20096      4.13195        -0.034676      0.099918      0.072882
O	      4.17993      3.95336      6.25118        -0.138126     -0.085713      0.048742
O	      6.33262      6.09011      6.27122         0.086486      0.125404     -0.054270
O	      6.24169      3.97625      8.42758        -0.016625      0.185596      0.044186
O	      8.33405      6.12969      8.15306        -0.103329     -0.003126      0.109990
O	      1.86661      6.17425      6.45885        -0.028437     -0.004726     -0.425167
O	      4.06323      8.34281      6.22146         0.013179      0.095587     -0.000269
O	      4.10305      6.20111      8.43395         0.081357     -0.099677     -0.144283
O	      6.20912      6.10272     10.63130        -0.012702      0.019832      0.085597
O	      8.31887      8.17726     10.44547        -0.044953     -0.049747      0.032019
