# total energy = -92.60194853 eV
 
CRYSTAL
PRIMVEC
4.104186 -0.021274 4.199959 
-0.021303 4.107654 -4.199956 
-0.021321 4.107670 4.199972 
PRIMCOORD
16 1
Li	      2.01017      8.20414      2.10020         0.000373      0.000332     -0.000038
Li	      2.03131      4.09707      2.10009         0.000586      0.000228      0.000231
Li	      2.04178      2.04165      4.19659        -0.000390      0.001359      0.001915
Li	      4.08195      4.08579      4.19939         0.000720      0.000017      0.000145
Mn	     -0.02045      4.10745      4.20044        -0.000431      0.000034      0.000507
Mn	      2.02084      6.15081      4.20057        -0.000244     -0.000968     -0.001180
Ni	     -0.03093      6.16114      2.10015        -0.000203      0.000036      0.000070
Ni	     -0.01018      2.05372      2.10015        -0.000858     -0.000259      0.000422
O	      2.13232      3.99460      0.00052         0.015173     -0.010560      0.000317
O	      2.04212      2.04298      1.92871         0.002017     -0.000006     -0.040332
O	     -0.02050      4.10750     -2.27089         0.000184     -0.001820     -0.049652
O	      0.07554      1.96669      0.00045         0.013607     -0.012733     -0.001465
O	      2.02094      6.15064      2.27301        -0.000960      0.000145      0.040156
O	      1.93106      4.19924      4.20049        -0.016063      0.011520     -0.000247
O	      3.98754      6.22698      4.20032        -0.013488      0.012057      0.000855
O	     -0.02051      4.10739      2.27204        -0.000022      0.000616      0.048296
