# total energy = -206.54590073 eV
 
CRYSTAL
PRIMVEC
-0.000836 6.226987 6.256923 
6.142610 0.026599 6.229347 
4.114641 4.152416 -0.001682 
PRIMCOORD
36 1
Li	      2.07491      2.06007      0.09013         0.017716     -0.034689      0.059440
Li	      6.12720      4.16869      2.07236        -0.048040      0.009845     -0.017750
Li	      2.08540      4.14864      2.23199         0.020898     -0.083224      0.046019
Li	      2.00684      2.21649      4.15537        -0.043610      0.009227      0.063587
Li	      3.92736      4.18698      4.13348        -0.039988      0.027961     -0.036377
Li	      8.14159      6.28066      6.33589        -0.071231     -0.011245     -0.015020
Li	      2.10771      6.11388      4.08399         0.027335     -0.034676      0.069980
Li	      2.08266      4.10332      6.15001        -0.009609     -0.023251     -0.041901
Li	      6.25417      6.27260      8.27885         0.032124     -0.018785     -0.075834
Mn	      4.02948      2.09082      2.08956        -0.115655      0.161375     -0.400782
Mn	      8.18231      4.17878      4.13606         0.051663      0.030049      0.112921
Cr	      6.18933      4.17655      6.27242         0.117899      0.034723     -0.112073
Fe	      0.14068      6.26364      6.27773        -0.041827     -0.137063      0.057146
Fe	      4.06699      6.21971      6.13667         0.001491      0.139246      0.061530
Cu	      6.14078      8.31354     10.40395         0.031666      0.041393      0.277797
Cu	      8.18322      8.29720      8.28719         0.106496      0.012011     -0.224515
Ni	      4.15476      6.20325      2.12745         0.069516     -0.113166      0.041239
Ni	      0.07042      4.15409      4.10844         0.061519     -0.065040      0.079772
O	      8.28670      6.37013      8.31618        -0.175713      0.053104      0.045734
O	      5.97892      8.31606      8.46967         0.259553     -0.031569     -0.196887
O	      2.12882      2.06430      2.09425         0.099388     -0.008362      0.045215
O	      4.07945      4.07022      1.99674        -0.018531     -0.003923      0.148821
O	      4.08500      1.96813      4.02955         0.016304     -0.060499      0.160736
O	      6.27341      4.10373      4.28138         0.014619     -0.074779     -0.297333
O	      6.18267      2.08351      6.19425        -0.025045      0.021539     -0.013722
O	      8.21037      4.19035      6.03729         0.114488     -0.006062     -0.050619
O	      1.98683      4.18207      4.18586         0.212829      0.011772     -0.048711
O	      4.10588      6.29444      4.20209        -0.027501     -0.128116     -0.156587
O	      4.16808      4.21418      6.31635        -0.230348     -0.179248      0.193904
O	      6.04083      6.12853      6.27862         0.177181      0.141587     -0.009201
O	      6.23610      4.11116      8.23705        -0.215310      0.180051      0.300566
O	      2.06691      6.23733      6.23603         0.000446      0.018211      0.013447
O	      4.11213      8.30074      6.38177        -0.048464      0.033533      0.073550
O	      4.05698      6.29238      8.41006        -0.017644     -0.071228      0.082825
O	      6.02630      6.22263     10.47892        -0.123650      0.174016     -0.167741
O	      8.25462      8.47865     10.25914        -0.180968     -0.014717     -0.069174
