# total energy = -207.13633656 eV
 
CRYSTAL
PRIMVEC
0.035108 6.237408 6.381897 
6.190196 0.035575 6.381503 
4.126689 4.157786 0.024017 
PRIMCOORD
36 1
Li	     10.27248      4.18682      6.39156         0.013621      0.001671      0.008885
Li	      2.13987      8.32396      6.41150         0.022087     -0.041087      0.030740
Li	      4.05721      2.12274      2.13314        -0.004509      0.021146     -0.086237
Li	      2.13679      4.09155      2.16718        -0.011038     -0.017355      0.068800
Li	      2.07069      2.15466      4.17338        -0.071722      0.055885     -0.096478
Li	      4.16940      2.05791      6.34584         0.017336     -0.033326      0.048966
Li	      4.14132      8.28467      4.37112         0.035993     -0.082066      0.038888
Li	      2.13431      6.21298      4.32273        -0.004407     -0.009933      0.021234
Li	      4.12885      6.29097      6.29353        -0.020530      0.028554     -0.105512
Mn	      4.17446      6.20805      2.19376         0.008541     -0.059852      0.003921
Mn	      6.23408      6.26443      8.53580         0.080128      0.074418      0.034412
Cr	      1.99022      4.23788      6.30384        -0.174091      0.284893      0.321643
Fe	      6.26499      4.14966      6.36144        -0.050553      0.052823      0.200789
Fe	      8.25246      8.33331      8.55656        -0.029039     -0.035894     -0.004085
Cu	      4.11944      0.05151      4.27068         0.092650      0.153755      0.028105
Cu	      6.17817      2.06614      4.33058         0.041064     -0.059962      0.009920
Cu	      4.10114      4.16154      4.27049        -0.066956     -0.021151      0.019813
Ni	      2.09536      6.29440      8.45243         0.023869     -0.020082     -0.192387
O	      2.12987      4.13178      4.40371         0.067863     -0.041717     -0.168527
O	      6.16119      6.32056     10.48158         0.165420      0.156265     -0.076576
O	      8.18274      8.41364     10.57184        -0.184839     -0.153016     -0.033593
O	      1.94752      2.05723      2.13039        -0.016295      0.179242      0.059681
O	      4.14012      4.28316      2.24242        -0.110836     -0.009895     -0.037710
O	      4.22845      2.13422      4.24338        -0.028209     -0.045308      0.057096
O	      6.18067      4.12683      4.33251        -0.134631     -0.130501      0.014525
O	      6.19531      2.16468      6.62165        -0.026429      0.004089     -0.058041
O	      8.20601      4.19133      6.25961         0.050856      0.006988     -0.029265
O	      4.14749      6.15971      4.11720         0.038891      0.146106      0.067925
O	      4.11921      4.18632      6.37481         0.095298     -0.046043      0.116372
O	      6.21484      6.26983      6.59335         0.031481     -0.033973      0.011380
O	      6.17069      4.10053      8.46637         0.012231      0.002563     -0.046316
O	      8.28393      6.34250      8.57579         0.042426     -0.046224     -0.032782
O	      2.10995      6.09387      6.38402        -0.007643     -0.207008     -0.093519
O	      4.31311      8.29611      6.38114         0.021420      0.023705     -0.053345
O	      4.19247      6.20894      8.60999         0.060378      0.052794      0.038665
O	      6.27223      8.39197      8.34129         0.020175     -0.150502     -0.087385
