# total energy = -206.48778651 eV
 
CRYSTAL
PRIMVEC
0.026612 6.188932 6.257101 
6.143760 0.020024 6.263606 
4.109090 4.143493 0.000170 
PRIMCOORD
36 1
Li	      4.21625     10.24239      6.36842        -0.018111     -0.000934     -0.002356
Li	      2.14075      8.21812      6.31159        -0.019582     -0.003600      0.009076
Li	      4.10281      8.35073      8.22840         0.019202      0.027242     -0.087577
Li	      4.11895      6.18555     10.39927         0.009553     -0.012800      0.023740
Li	      4.15137      6.12222      2.11361         0.015370      0.020848     -0.026750
Li	      2.16835      4.09622      2.05656         0.063207     -0.035035     -0.002498
Li	      4.10668      4.16895      4.04308        -0.014235      0.001685     -0.024387
Li	      4.01812      6.26707      6.30781         0.030403      0.024892      0.002240
Li	      6.11841      6.20672      8.38257        -0.046080      0.003175     -0.001453
Mn	      2.06237      2.04759      4.12198         0.027607      0.096458      0.020606
Mn	      6.15492      4.16604      6.31593         0.067984      0.045647      0.059688
Cr	      8.22734      6.20276      6.32162        -0.021095     -0.057847      0.024217
Fe	      6.15223      8.17822     10.39711        -0.030953      0.115777      0.062072
Fe	      4.08221      8.30525      4.26509        -0.034183      0.142113     -0.158829
Ni	      2.11961      6.17125      4.17187         0.046741     -0.062668     -0.068039
Ni	      2.05610      6.19973      8.26210         0.106123      0.055898      0.057806
Ni	      6.14144      8.31949      6.27084         0.013553     -0.146704     -0.010628
Ni	      4.09861      4.16408      8.34233        -0.017869     -0.008436      0.029990
O	      4.28429      4.15905      2.06748        -0.345792      0.017740      0.018344
O	      2.11566      1.95202      2.25693         0.010343      0.112828      0.084734
O	      4.08037      2.05331      4.28908        -0.090205     -0.001237      0.009685
O	      6.14548      4.21825      4.31970        -0.007785      0.021901     -0.015260
O	      6.10933      2.24355      6.16207         0.023364     -0.023853      0.084005
O	      8.04428      4.22301      6.35224         0.012317     -0.000127      0.008777
O	      2.02863      4.03266      4.15197         0.095332     -0.130774     -0.101651
O	      4.23053      6.30051      4.14562         0.095340     -0.141595     -0.034384
O	      4.17253      4.07680      6.29512         0.061386      0.024909     -0.100249
O	      6.21168      6.15728      6.15428        -0.033236     -0.073706     -0.024267
O	      6.07341      4.20525      8.24654         0.112181      0.008888     -0.054273
O	      8.22330      6.38587      8.31669        -0.003492     -0.142212     -0.035286
O	      2.08548      6.14213      6.21510         0.000324      0.158151     -0.023662
O	      4.13369      8.26911      6.16528        -0.108286     -0.003827      0.175050
O	      3.96390      6.04981      8.34774         0.197451      0.157713      0.001689
O	      6.19994      8.35940      8.39877        -0.085845     -0.144451      0.012515
O	      6.19235      6.23491     10.40024        -0.103658     -0.128807     -0.006410
O	      8.20201      8.24728     10.39131        -0.027380      0.082745      0.093725
