# total energy = -213.77798824 eV
 
CRYSTAL
PRIMVEC
0.011873 6.254328 6.139610 
6.296393 -0.004763 6.156043 
4.192740 4.175779 0.001829 
PRIMCOORD
36 1
Li	      8.32388      2.08726      6.08634        -0.047735     -0.024809     -0.016012
Li	      2.14168      6.27561      8.15182         0.057269      0.042947     -0.098652
Li	      8.42863     10.33794     10.29679         0.005340     -0.010722      0.075282
Li	      6.25506      2.10525      8.17904        -0.056790      0.031752     -0.061072
Li	      4.25996      2.09316      6.18107        -0.004407     -0.068443      0.086342
Li	      6.29050      4.07617      6.17110         0.017048     -0.025125      0.037074
Li	      8.39618      6.33632     10.24245        -0.095832      0.099920      0.003904
Li	      4.15849      6.22902      6.15579        -0.035985      0.031764      0.051905
Li	      4.26241      4.16548      8.21630        -0.010759     -0.040587      0.006834
Mn	      6.37288      8.35546     10.29347         0.050449     -0.125384     -0.012827
Mn	      6.28613      6.19011      4.15389         0.211952      0.069121      0.066449
Cr	      6.29455      6.22092      8.19348         0.056790      0.046986     -0.105651
Fe	      4.16329      8.27528      8.12762         0.016925     -0.116083     -0.153067
Fe	      8.38462      4.22709      8.10054        -0.104074     -0.041361      0.067505
Fe	      2.20480      4.26498      6.13801        -0.305815     -0.082129      0.242291
Co	      4.21162      4.18027      4.11044         0.079751      0.267801      0.327918
Cu	     10.33656      8.33354     10.28732        -0.060008     -0.070531      0.001695
Ni	      6.30793      0.03638      6.14776         0.049729      0.008620     -0.002709
O	      8.26747      8.34908     10.22180         0.110309      0.026641     -0.012095
O	      2.15578      2.11878      2.20763        -0.078940     -0.145438      0.074155
O	      4.13870      4.09624      2.13064         0.126409      0.060684      0.061418
O	      4.17431      2.21275      4.06253        -0.110482     -0.463719     -0.004578
O	      6.16101      4.21727      4.12503         0.014437      0.058629     -0.007212
O	      6.30440      2.05936      6.01911        -0.070819      0.135587      0.019943
O	      8.44200      4.13684      6.23378        -0.101329     -0.048430     -0.384097
O	      2.26406      4.04578      4.09408         0.004680     -0.097808     -0.028347
O	      4.38007      6.14402      4.08925        -0.048125      0.358467     -0.057227
O	      4.12589      4.20144      6.03104         0.523142     -0.070581     -0.114340
O	      6.31668      6.40137      6.11270        -0.005793     -0.341208     -0.147947
O	      6.34264      4.22324      8.32469        -0.076432     -0.095379     -0.036291
O	      8.30513      6.15632      8.21461         0.083941      0.276460      0.101354
O	      2.07133      6.12813      6.14438         0.037360      0.565294     -0.078611
O	      4.28863      8.39432      6.10316        -0.160978     -0.107223     -0.047923
O	      4.29053      6.35868      8.18317        -0.057700     -0.154473      0.036288
O	      6.25298      8.27479      8.23685        -0.024800      0.038825      0.138927
O	      6.26931      6.32394     10.19202         0.011269      0.009933     -0.030626
