# total energy = -213.71010162 eV
 
CRYSTAL
PRIMVEC
0.009455 6.257466 6.451193 
6.039713 0.016354 6.443849 
4.014520 4.155355 0.023267 
PRIMCOORD
36 1
Li	      4.02992     10.38074      6.48681         0.017438     -0.036917      0.011824
Li	      5.95858      4.20676      2.16143        -0.013337      0.002369     -0.096218
Li	      6.03763      2.13514      4.48297        -0.060688     -0.030342     -0.007423
Li	      4.03562      6.19795      2.18187         0.015637     -0.062396      0.028974
Li	      5.96009      6.17406      4.35259        -0.014281      0.059919      0.004231
Li	      4.13662      4.18908      4.25341        -0.084181     -0.003131     -0.024577
Li	      3.99616      8.28965      4.42315         0.053227     -0.012728      0.143277
Li	      4.03710      6.23229      6.36310        -0.084191      0.100329     -0.057974
Li	      6.02729      6.25152      8.59336         0.007059      0.065337      0.030114
Mn	      2.01208      4.11050      6.35094        -0.066763      0.027525      0.045061
Mn	      4.04419      4.18793      8.60774        -0.251508      0.018620      0.037457
Cr	      2.03860      6.24369      4.36652         0.099061     -0.129891      0.207231
Fe	      4.03056      2.10304      2.17454         0.212785     -0.047704     -0.350934
Fe	      4.10961      6.30407     10.73336         0.102692     -0.022885      0.149283
Fe	      1.99122      4.16363      2.19694         0.105730      0.067154      0.081609
Co	      6.03557      4.23233      6.42275        -0.393817      0.229029      0.000129
Cu	      8.02363      8.30741     12.89371         0.132358     -0.043117      0.181858
Cu	      4.07406      2.14093      6.36988         0.020837      0.207291     -0.009713
O	      6.02933      2.32036      6.48238        -0.357009     -0.823262      0.036004
O	      3.85914      6.25020      4.32406         0.001302      0.048642     -0.075549
O	      2.04296      2.15750      2.00202        -0.276931     -0.005222      0.136823
O	      3.92982      4.11105      2.15246         0.131466      0.079782      0.011215
O	      4.09916      2.01727      4.07690        -0.052333      0.005680      0.145662
O	      6.13369      4.19262      4.53488         0.007817     -0.024391     -0.125359
O	      7.96795      4.35129      6.52710         1.040446      0.209279      0.016885
O	      1.97791      4.21876      4.34628        -0.028670      0.093080     -0.266821
O	      4.00714      4.11123      6.41403        -0.166182     -0.056021     -0.081657
O	      6.10505      6.29258      6.40334         0.008833     -0.046464     -0.008395
O	      6.01052      4.22757      8.41792        -0.027757      0.002239      0.041992
O	      8.01626      6.30698      8.87172        -0.092591      0.032163     -0.029705
O	      2.00564      6.05152      6.28939        -0.003297      0.271169      0.056283
O	      4.10892      8.24492      6.59737        -0.285214     -0.070893     -0.125218
O	      3.99820      6.17816      8.73314        -0.013300     -0.137065     -0.058655
O	      6.08353      8.33368      8.33674         0.191856     -0.017462      0.201039
O	      6.06940      6.25363     10.83765         0.143032      0.003252     -0.043056
O	      8.05105      8.30009     10.89103        -0.019524      0.047030     -0.205697
