# total energy = -215.64682345 eV
 
CRYSTAL
PRIMVEC
-0.029817 6.625453 6.202371 
6.207182 0.001419 6.168305 
4.103289 4.356955 0.036326 
PRIMCOORD
36 1
Li	      6.21330      4.50422      2.30219        -0.009937     -0.066525     -0.106573
Li	      4.07171      2.22500      2.27841         0.074963     -0.035156     -0.099279
Li	      3.90420      0.27602      4.10680         0.072665     -0.119161     -0.001952
Li	      6.01775      2.48230      4.11522         0.103309     -0.098259     -0.091867
Li	      4.15175      6.32310      2.20245        -0.025441      0.018325      0.048432
Li	      6.19194      6.25030      4.08145        -0.115933      0.074567      0.023071
Li	      4.27151      4.21474      4.06507        -0.075571      0.070790     -0.007094
Li	      6.15180      4.43758      5.98138        -0.085256      0.040310      0.198930
Li	      4.16838      6.55107      6.13953        -0.021316     -0.072747      0.029380
Mn	      2.07081      4.28311      2.08475        -0.210166      0.144859      0.102632
Mn	      6.17849      6.65602      8.29368        -0.181986      0.136301     -0.027018
Cr	      4.09463      8.73618      4.14710        -0.189295     -0.011252     -0.089308
Fe	     10.27059      4.35248      6.19334         0.071238     -0.174241     -0.077019
Fe	      1.94253      2.11334      0.09082         0.246406     -0.117831     -0.402278
Fe	      2.08104      4.41778      6.19680         0.362301      0.092799      0.226309
Co	      4.10468      4.52890      8.22388         0.019593     -0.126420      0.856910
Co	      2.08534      6.61329      4.12557         0.083991      0.049878     -0.005423
Cu	      4.19003      2.26852      6.07793        -0.006470      0.131420      0.261313
O	      4.05651      2.22314      4.21630        -0.005312     -0.039187     -0.159429
O	      6.14801      4.36428      4.13932         0.002323      0.033060      0.018074
O	      2.01923      2.12874      1.97033         0.023854      0.095098      0.278625
O	      3.96590      4.31315      2.00200         0.009603     -0.008788      0.104675
O	      6.17793      1.97481      6.13487        -0.074783      0.106376     -0.011835
O	      8.26211      4.13020      6.26522        -0.070640      0.014367     -0.084941
O	      2.03639      4.62229      4.11247        -0.043439      0.027575     -0.128301
O	      3.99940      6.77249      4.13353        -0.061443      0.007504     -0.055206
O	      4.05677      4.54101      6.36652         0.067611      0.045533     -0.319902
O	      6.25616      6.76608      6.36708        -0.045804     -0.148581     -0.017182
O	      6.27891      4.64764      8.27709         0.446190      0.025213     -0.053000
O	      8.16732      6.71250      8.33186        -0.070552     -0.003150     -0.161417
O	      1.98341      6.58362      6.08992        -0.041250      0.185149     -0.057675
O	      4.12811      8.86368      6.13709        -0.170544     -0.010417     -0.058237
O	      4.29885      6.49855      8.33690         0.131321     -0.065518     -0.130146
O	      6.17307      8.61395      8.25718        -0.368880     -0.299433      0.014229
O	      6.30426      6.46554     10.26914         0.048802     -0.008333     -0.092752
O	      8.30568      8.55255     10.28729         0.109849      0.105873      0.075252
