# total energy = -216.57443432 eV
 
CRYSTAL
PRIMVEC
0.032049 6.271604 6.293106 
6.274046 0.038708 6.285703 
4.192715 4.186044 0.015956 
PRIMCOORD
36 1
Li	      4.17624      2.16253      2.28249         0.011090      0.036954      0.036015
Li	      4.18525      0.25624      4.18602        -0.063606      0.004346     -0.035536
Li	      6.06228      2.11355      4.17782        -0.071418      0.041577     -0.026322
Li	      2.17431      4.16933      2.13179         0.014401      0.031797      0.033252
Li	      2.31979      2.09387      4.20157         0.032135     -0.025851     -0.008593
Li	      4.15066      3.97511      4.15932         0.037031     -0.046640     -0.060024
Li	      4.15020      2.11623      6.05314        -0.019486      0.007274     -0.027905
Li	      6.31570      8.28236      6.30557         0.002612     -0.025907     -0.025109
Li	      6.31894      6.36327      8.36357         0.032378      0.019841      0.010676
Mn	      6.38245      4.29165     10.45830         0.084231      0.038895     -0.032243
Mn	      8.36033      8.38587      8.39752        -0.133537      0.119305      0.020758
Cr	      4.20916      6.27682      6.29158        -0.024169      0.015683      0.006228
Fe	      2.10185      2.13335      0.05271         0.009696     -0.036785     -0.064855
Fe	      4.20170      6.20980      2.12488        -0.061396      0.029002      0.099874
Fe	      6.33092      4.27657      6.14659        -0.017148      0.006701      0.113463
Co	      6.26887      4.15905      2.28089        -0.006383      0.017860     -0.048245
Co	      8.39295      6.32942     10.47874        -0.019546     -0.094426     -0.171385
Ni	     10.48829     10.48398     12.58913        -0.037698     -0.007740      0.025891
O	      4.18788      2.11053      4.17146        -0.011328     -0.014830      0.041192
O	      2.01652      1.94704      2.07934         0.034674     -0.338917     -0.015009
O	      4.28122      4.24254      2.05312         0.524194     -0.112515      0.349590
O	      6.27795      4.19192      4.25385         0.043908     -0.053318     -0.736390
O	      6.35108      2.13578      6.36160        -0.008722      0.160139     -0.073191
O	      8.35923      4.12348      6.34029        -0.110439      0.046728      0.073257
O	      2.01279      4.35558      4.16746         0.003253      0.096323     -0.012366
O	      4.10937      6.38851      4.22247        -0.055010     -0.014452     -0.011933
O	      4.23110      4.25063      6.43679        -0.004670      0.018107      0.062243
O	      6.18410      6.23446      6.32466        -0.027955     -0.085885     -0.024829
O	      6.14881      4.13730      8.30234        -0.018647     -0.039058     -0.052868
O	      8.42340      6.42715      8.53343        -0.029722      0.081192      0.105327
O	      2.15313      6.34979      6.15590         0.048961     -0.030312      0.210440
O	      4.13882      8.30705      6.35722         0.018129     -0.084794      0.035730
O	      4.09314      6.13819      8.30342        -0.320442      0.000264      0.343578
O	      6.46240      8.50266      8.43596         0.034090      0.242391     -0.011020
O	      6.44725      6.23919     10.52413         0.119945      0.014009     -0.121957
O	      8.54275      8.32347     10.42250        -0.009409     -0.016958     -0.007735
