# total energy = -219.49101225 eV
 
CRYSTAL
PRIMVEC
-0.006019 6.264072 6.152479 
6.267330 0.010653 6.135454 
4.193516 4.180146 -0.008352 
PRIMCOORD
36 1
Li	      4.19253      4.17674      0.16705        -0.009614      0.012185      0.026847
Li	      2.02629      0.07016      1.94173        -0.016218      0.008852     -0.041544
Li	      0.10102      2.06251      1.96266         0.100665      0.005873     -0.013387
Li	      2.12696      4.09309      1.98301         0.009312     -0.009969     -0.016090
Li	      2.07586      2.08271      4.06744         0.019270     -0.020711     -0.024535
Li	      6.26072      4.20254      6.21554        -0.004962     -0.002123      0.035580
Li	      2.16826      4.15893      6.20393         0.064454     -0.038885     -0.000597
Li	      4.17755      6.21630      6.18626         0.009064     -0.015821      0.006020
Li	      4.20462      4.19125      8.00457         0.034026     -0.003178     -0.055493
Mn	      2.08602      6.28415      4.13767         0.035059     -0.022245      0.072385
Mn	      6.24697      6.26381      8.14653        -0.021276     -0.066700     -0.127290
Cr	      8.32766      4.20497      4.09069        -0.061914      0.052537      0.037108
Fe	      6.25464      2.17343      4.14102        -0.004910     -0.073857     -0.023620
Fe	      4.19161      4.24841      4.09308        -0.026101     -0.044407      0.014640
Fe	      4.30835      8.25860      4.12931        -0.082269      0.035894      0.088733
Co	      2.09870      2.10988      0.02035         0.012686      0.021413      0.115955
Co	      4.16214      8.35458      8.12878        -0.109803      0.094660     -0.061053
Co	      8.37969      6.26020      6.21685        -0.011864      0.022509      0.059133
O	      2.24570      2.07087      1.90534         0.030646      0.002556     -0.027441
O	      4.18780      4.01814      2.14607        -0.009239     -0.036012     -0.077868
O	      4.20815      2.06034      3.97649        -0.023277     -0.056998      0.053208
O	      6.30502      4.13239      4.03763         0.052629      0.043705     -0.017471
O	      6.33347      2.07570      6.09846         0.015990      0.004154     -0.007362
O	      8.36354      4.14005      6.05897        -0.026160     -0.035807     -0.039830
O	      2.05523      4.23085      4.17184         0.106984      0.074050      0.003232
O	      4.18910      6.27955      4.01624         0.012279      0.006778      0.017273
O	      4.19925      4.10164      6.02254         0.005638     -0.000337      0.036579
O	      6.32983      6.25185      6.29907        -0.007984      0.028357      0.114451
O	      6.21903      4.34119      8.32124         0.004249      0.080171     -0.062295
O	      8.18982      6.31017      8.32924        -0.065992      0.003035      0.006517
O	      2.08618      6.42272      6.02880         0.006478     -0.012426     -0.071985
O	      4.02949      8.37549      6.14705        -0.005697     -0.021211     -0.026212
O	      4.28748      6.36461      8.21505         0.038486     -0.007571      0.014310
O	      6.15860      8.23398      8.23629        -0.023250     -0.034239     -0.001992
O	      6.18632      6.28905     10.16200        -0.062395      0.006272     -0.020622
O	      8.33656      8.42662     10.31652         0.015010     -0.000501      0.014716
