# total energy = -210.47513450 eV
 
CRYSTAL
PRIMVEC
-0.023377 6.276292 6.363042 
6.180717 -0.046229 6.385336 
4.113089 4.190949 -0.022309 
PRIMCOORD
36 1
Li	      8.22569      4.18454      4.33009         0.000581      0.013463      0.021821
Li	     10.06417      6.31390      8.45476         0.056400      0.038252      0.000272
Li	      8.14866      4.37975      8.42729        -0.030537     -0.049191     -0.018302
Li	      6.17285      6.24773      4.26615         0.003402      0.037095     -0.007913
Li	      8.25509      6.15452      6.59153        -0.037881     -0.022562     -0.036565
Li	      6.20858      4.18373      6.47145        -0.037263      0.026778     -0.009118
Li	      8.18740      6.23605     10.35186        -0.033367      0.005552      0.048043
Li	      8.29299      8.09582      8.47747        -0.036212      0.012270      0.002585
Li	      6.35549      6.16017      8.47516        -0.044819     -0.040508     -0.016544
Mn	      2.07935      0.01542      2.16918         0.030440      0.027933      0.082587
Mn	      4.13507      2.08096      2.14341        -0.114636     -0.026679      0.152044
Cr	      6.15029      4.15043     10.45889         0.051697      0.048549     -0.361433
Fe	      8.12301      2.18646      6.32255         0.028815     -0.146742      0.071848
Fe	      2.12998      4.07548      6.27893        -0.084791      0.080579      0.180759
Fe	      4.16020      6.20403      6.30095        -0.063413      0.063194      0.127758
Cu	      6.20422      8.33272     10.62425        -0.012814     -0.086208     -0.062054
Ni	     10.23606      4.17969      6.34360         0.015449     -0.015151      0.010254
Ni	      4.09552      4.21508      4.19681        -0.055550      0.103620      0.021958
O	      8.21733      6.24566      8.46945         0.031600     -0.023026      0.058497
O	      2.19737      1.95169      2.05655         0.018678     -0.017366     -0.009104
O	      4.23276      4.04841      2.10215        -0.024116      0.036163     -0.009993
O	      4.24998      2.11676      4.02374        -0.114253     -0.075031     -0.164509
O	      6.13843      4.25368      4.00638         0.118317      0.129136     -0.125451
O	      6.20474      2.01265      6.31207        -0.101586      0.048093     -0.006666
O	      8.22100      4.07021      6.41494        -0.110415      0.128064     -0.000274
O	      1.98392      4.15985      4.34040        -0.014652     -0.032155     -0.076286
O	      4.06350      6.42950      4.36847        -0.005826     -0.086673     -0.079865
O	      4.07972      4.24196      6.27487         0.045013     -0.019654      0.085580
O	      6.08845      6.33152      6.40327         0.168324     -0.074812      0.003984
O	      6.15424      4.12557      8.68852        -0.021553     -0.028715      0.001434
O	      2.05556      6.23533      6.56761         0.065915     -0.013096     -0.058534
O	      4.09880      8.34109      6.46066         0.057022     -0.039927      0.109989
O	      3.98753      6.42184      8.41866         0.074676     -0.015337      0.111046
O	      6.06293      8.49247      8.41876         0.125655      0.076063      0.061569
O	      6.14985      5.98655     10.73603        -0.036956      0.007263     -0.019055
O	      8.21553      8.31216     10.71885         0.088656     -0.069234     -0.090364
