# total energy = -136.29908839 eV
 
CRYSTAL
PRIMVEC
-0.000002 4.167736 -0.000030 
0.000078 -0.000122 11.874026 
4.167750 -0.000002 0.000011 
PRIMCOORD
24 1
Li	      1.04063      1.04160      0.99148        -0.000734     -0.003905     -0.000563
Li	      1.04182      1.03964      4.94918         0.000201      0.001273     -0.020383
Li	      1.04283      1.04070      8.90741        -0.002042      0.002157      0.021518
Li	      3.12479      3.12369      0.99149        -0.000565      0.001005      0.000103
Li	      3.12608      3.12420      4.94920        -0.000462     -0.001197     -0.020284
Li	      3.12772      3.12472      8.90757        -0.004306      0.001260      0.020836
Mn	      1.04135      3.12350      2.96612         0.000347      0.001089      0.073115
Mn	      1.04119      3.12534     10.89077         0.000559     -0.001938     -0.071204
Mn	      3.12637      1.04158      6.92834        -0.000334     -0.003030      0.002043
Ni	      1.04291      3.12553      6.92833        -0.002237     -0.002268     -0.000107
Ni	      3.12506      1.03913      2.98667         0.000949      0.005388      0.005260
Ni	      3.12470      1.04118     10.87049         0.002931      0.000246     -0.009243
O	      1.04123      1.03950      2.96100         0.000144      0.002767     -0.018844
O	      1.04252      1.04173      6.92851        -0.000372     -0.002482      0.000732
O	      1.04070      1.04148     10.89585         0.003991     -0.001074      0.018014
O	      3.12525      3.12292      2.96107        -0.000331      0.004708     -0.019628
O	      3.12682      3.12535      6.92863        -0.001972     -0.001698     -0.000332
O	      3.12494      3.12511     10.89587         0.002329      0.000314      0.018038
O	      1.04077      3.12455      0.99159         0.000530     -0.001323     -0.000320
O	      1.04202      3.12391      4.83612        -0.000725     -0.000869     -0.135931
O	      1.04205      3.12563      9.02090        -0.000184     -0.001547      0.133244
O	      3.12428      1.04033      0.99158         0.001490      0.000423      0.001234
O	      3.12592      1.04013      5.02699        -0.000233      0.000803      0.160913
O	      3.12590      1.04153      8.82963         0.001026     -0.000104     -0.158212
