# total energy = -211.15075119 eV
 
CRYSTAL
PRIMVEC
-0.011333 6.244892 6.300836 
6.237158 0.011304 6.278026 
4.161045 4.151112 0.004762 
PRIMCOORD
36 1
Li	      4.14615      4.14113      0.15489         0.055423     -0.015877     -0.002258
Li	      2.11408      2.07904      0.10811         0.067340     -0.100314     -0.027142
Li	      2.01227      0.10944      2.03222         0.004607     -0.001611     -0.077171
Li	      2.12146      4.09872      2.08868        -0.010414      0.017860      0.062497
Li	      2.07171      2.04936      4.03494        -0.009695     -0.015355     -0.075721
Li	      4.11686      4.20633      4.13971        -0.070960      0.064723     -0.000428
Li	      6.21042      4.18427      6.33653        -0.075660      0.054606      0.016770
Li	      4.14527      6.18304      6.35963        -0.034407     -0.021185      0.018616
Li	      4.19050      4.16168      8.29619         0.027817      0.008291     -0.009807
Mn	      8.28563      4.17521      4.20590        -0.022978     -0.145900      0.016724
Mn	      6.23161      6.22004      8.38744         0.052353     -0.075674     -0.088940
Cr	      2.09731      6.22511      4.23782        -0.003314      0.078972      0.152034
Fe	      6.21481      2.18181      4.30047         0.121695     -0.137702     -0.110207
Fe	      4.18835      8.22643      4.26408        -0.036035      0.083649      0.004315
Fe	      2.14090      4.21167      6.33441        -0.092341      0.180680     -0.057622
Cu	      0.10405      1.96594      2.00004        -0.046509      0.018344      0.041938
Cu	      8.30908      6.25906      6.30894         0.137897     -0.086768      0.023036
Ni	      4.09018      2.12605      2.01094         0.005498     -0.049413     -0.090603
O	      8.31805      4.28535      6.06054         0.031350     -0.020136     -0.074357
O	      4.08004      4.06961      6.25443         0.212967      0.007866      0.028122
O	      2.07941      2.10298      2.05657        -0.010033      0.043361      0.006671
O	      4.15070      4.13886      2.11313        -0.024527      0.078467      0.011445
O	      4.21065      1.94057      4.04028        -0.137385      0.043196      0.254610
O	      6.40449      4.09937      4.15317         0.100813      0.185671     -0.031253
O	      6.17470      2.09849      6.26470        -0.103340      0.006883     -0.159428
O	      1.99766      4.23611      4.27769         0.097601     -0.098072     -0.019968
O	      4.06720      6.29177      4.03668         0.039731     -0.109966      0.080545
O	      6.26532      6.27668      6.49628        -0.005388     -0.188135      0.166460
O	      6.21392      4.31131      8.51975        -0.004670      0.017960     -0.088351
O	      8.15662      6.26019      8.55808        -0.132287      0.025063     -0.268657
O	      2.12496      6.16186      6.20907        -0.047609      0.168041      0.070956
O	      4.22876      8.29605      6.23138        -0.063740     -0.027739      0.108088
O	      4.27889      6.26137      8.51176        -0.015817     -0.114908      0.039237
O	      6.18563      8.19353      8.43054         0.053367     -0.004501      0.028091
O	      6.19771      6.27499     10.39255        -0.092682      0.025691      0.063179
O	      8.28034      8.38395     10.55874         0.031329      0.103932     -0.011419
