# total energy = -210.73280834 eV
 
CRYSTAL
PRIMVEC
-0.039390 6.331727 6.264349 
6.282436 -0.012588 6.237640 
4.170697 4.186076 0.009032 
PRIMCOORD
36 1
Li	      6.18536      4.27109      2.14337        -0.040723     -0.014900     -0.014726
Li	      2.14145      4.13313      2.20959        -0.020495     -0.012765      0.032916
Li	      6.26363      6.29947      4.19789        -0.038133      0.030023      0.006080
Li	      4.09103      4.21573      4.21327        -0.033303     -0.009645      0.046838
Li	      8.27256      6.29015      6.19987         0.022313      0.004571      0.033749
Li	      6.27771      4.28560      6.11855        -0.028788      0.027942      0.042800
Li	      2.13982      6.19642      4.24568         0.033209      0.010136      0.004256
Li	      2.13596      4.18908      6.18440         0.084742     -0.038081      0.011216
Li	      4.16841      6.24582      6.19899         0.036072     -0.026806     -0.030846
Mn	      4.13433      6.25586      2.14855        -0.107805     -0.121247      0.078323
Mn	      6.29409      6.29941      8.26398         0.067670     -0.175369     -0.173157
Cr	      4.12729      4.21966      8.17442         0.066732     -0.027854      0.047390
Fe	      4.20558      4.18539      0.05754        -0.148398      0.071326     -0.044118
Fe	      2.05295      2.07278      0.03739        -0.012345      0.096969     -0.060714
Fe	      0.15286      4.15220      4.24526        -0.286808      0.004126     -0.069226
Cu	      4.13689      2.11062      2.11057        -0.137533      0.045992     -0.218224
Cu	      8.32451      4.19952      4.15540        -0.176633      0.303896     -0.106050
Cu	      6.22719      2.17407      4.17794        -0.063706     -0.066558     -0.090730
O	      1.99417      4.20976      4.20686         0.186386      0.008328      0.017462
O	      4.20830      4.22983      6.40184         0.041114      0.037010     -0.217785
O	      6.26801      6.26605      6.43608         0.031755      0.065878      0.085280
O	      1.92313      2.14343      2.02218        -0.044297     -0.091922      0.129148
O	      4.12545      4.12830      2.03668         0.043788      0.155834      0.170786
O	      4.24564      2.02675      4.04559         0.105582      0.029366      0.235653
O	      6.35022      4.11582      4.13630        -0.087085      0.076972     -0.024892
O	      6.27661      2.02833      6.42578         0.020951     -0.025345     -0.260811
O	      8.43088      4.11506      6.13135         0.169799     -0.147479      0.053178
O	      4.13894      6.38184      4.07256        -0.001553     -0.032431      0.182840
O	      6.10740      4.31016      8.44065         0.061360      0.128118      0.004885
O	      8.30593      6.41867      8.33883        -0.040799     -0.014186      0.014549
O	      1.96466      6.43580      6.24061        -0.053871     -0.049641      0.033436
O	      4.06638      8.46678      6.29802         0.039613     -0.067619     -0.162981
O	      4.30918      6.28652      8.35526         0.119933     -0.054301     -0.027543
O	      6.43561      8.23556      8.27579        -0.030785      0.068326      0.197346
O	      6.20224      6.31731     10.36587         0.083862     -0.109793      0.019376
O	      8.28987      8.50362     10.39308         0.138180     -0.078871      0.054294
