# total energy = -210.80365348 eV
 
CRYSTAL
PRIMVEC
0.027310 6.251162 6.306645 
6.185941 0.029656 6.303752 
4.127304 4.168662 0.016890 
PRIMCOORD
36 1
Li	      4.15428     10.31656      6.27395         0.009247     -0.029835      0.015518
Li	      2.24511      8.35909      6.26189        -0.052729      0.008286     -0.027579
Li	      4.14103      8.37246      8.26976         0.020617      0.022121      0.032574
Li	      4.09424      4.16462      4.20418         0.011281     -0.014372     -0.037404
Li	      8.21834      6.28320      6.29009        -0.021790      0.022429      0.011099
Li	      4.18472      8.37209      4.43167         0.013344     -0.027971     -0.061644
Li	      6.07892      8.32352      6.29017         0.085680     -0.049068     -0.010794
Li	      4.15299      6.33577      6.29605         0.033390      0.021748     -0.014100
Li	      6.16573      6.30488      8.47772        -0.008571     -0.009046      0.079663
Mn	      2.08328      2.13697      4.21519        -0.020395      0.047604      0.137175
Mn	      8.26720      8.34934      8.43814         0.011689      0.025785     -0.128251
Cr	      6.13833      2.09174      4.25118        -0.025831     -0.033898      0.000783
Fe	      2.08383      6.24662      8.17183         0.014409     -0.042295      0.268099
Fe	      4.13145      6.20425      2.10556        -0.031422      0.138885     -0.127390
Fe	      6.19613      4.22566      6.32230        -0.159946      0.049978     -0.017373
Ni	      2.08763      6.20758      4.31892         0.036947     -0.039751      0.030600
Ni	      8.32809     10.42978     10.56779         0.033206     -0.018454      0.045270
Ni	      2.11134      4.16955      2.09528        -0.028683      0.012104     -0.056829
O	      4.15138      8.34099      6.35619        -0.017708     -0.031247     -0.016636
O	      2.03753      2.04934      2.23737         0.059216     -0.017235      0.021473
O	      4.17994      4.26396      2.05561         0.036544     -0.163630     -0.013067
O	      4.07498      2.05594      4.15907        -0.048757      0.168920      0.025069
O	      6.19562      4.23132      4.23679        -0.098706     -0.034947     -0.109782
O	      6.17507      2.24277      6.27430         0.003680     -0.171872      0.034009
O	      8.11157      4.20263      6.37787         0.231211      0.022716     -0.044677
O	      2.10682      4.05623      4.13529        -0.007969     -0.114457      0.103187
O	      4.25134      6.25726      4.12623         0.108354     -0.021747      0.080496
O	      4.22752      4.16679      6.52064        -0.136888      0.012861      0.068008
O	      6.18300      6.19442      6.13115         0.004856      0.158134     -0.108678
O	      6.12260      4.15638      8.36708        -0.092529      0.026159      0.107145
O	      8.31835      6.33481      8.53600        -0.073061      0.151979     -0.101568
O	      2.12538      6.25096      6.31810        -0.008747      0.012344     -0.158883
O	      4.09459      6.08990      8.46851         0.054351     -0.013477     -0.093500
O	      6.32372      8.39789      8.51455         0.017220     -0.057300      0.011715
O	      6.21844      6.39687     10.53559         0.028499      0.005895      0.025622
O	      8.18452      8.34353     10.40340         0.019990     -0.017347      0.030653
