# total energy = -218.72951696 eV
 
CRYSTAL
PRIMVEC
0.034053 6.275632 6.383892 
6.203078 0.037819 6.380300 
4.151322 4.197162 0.009098 
PRIMCOORD
36 1
Li	      4.28095     10.38872      6.41780        -0.056483     -0.072725     -0.076951
Li	      4.22408      8.42172      8.49256        -0.011092      0.004303     -0.033676
Li	      6.23482      8.39803     10.55493         0.016126     -0.056946      0.017782
Li	      4.14689      6.26374      2.23999        -0.043061      0.081204      0.118188
Li	      4.16536      4.23510      4.23824        -0.019801      0.047014      0.065572
Li	      2.15908      6.30061      4.29929         0.018032      0.035205     -0.004854
Li	      2.04627      4.32332      6.40669        -0.048935      0.051916     -0.082546
Li	      4.08795      6.29786      6.36186         0.029059      0.033622     -0.082292
Li	      8.27401      8.41077      8.53194         0.098835     -0.021124      0.011370
Mn	      2.11932      8.28589      6.41494         0.279253      0.199938     -0.419366
Mn	      6.18503      4.18917      6.42339         0.036285     -0.122168     -0.045757
Cr	      6.18394      6.30854      4.24996        -0.352882      0.154475      0.331176
Fe	      4.18462      6.26162     10.51216         0.235250     -0.146753      0.387948
Fe	      2.20491      4.19682      2.21731        -0.489828      0.181745      0.222075
Fe	      4.20711      2.17194      6.37336         0.012814     -0.141558     -0.151408
Fe	      6.21791      6.43177      8.52850         0.124654     -0.645036      0.127699
Co	      4.15677      8.35276      4.28410         0.025680      0.367475     -0.305190
Cu	      6.19443     10.42427      8.48929        -0.013763     -0.034731      0.145649
O	      6.23959      8.30210      8.49163        -0.011221      0.630132     -0.091439
O	      2.09064      2.20548      2.24518         0.062219     -0.283845     -0.220062
O	      4.07584      4.20373      2.15985         0.419455     -0.035162     -0.031232
O	      4.07197      2.00891      4.39637         0.083733      0.011306     -0.089126
O	      6.25777      4.27196      4.14806        -0.061410     -0.065500     -0.021098
O	      6.24162      2.23020      6.36627         0.092997     -0.033105      0.044477
O	      8.17884      4.14935      6.39318         0.040566     -0.062342      0.077771
O	      1.96591      4.13309      4.25221         0.155984     -0.056608     -0.071198
O	      4.20811      6.41825      4.25205         0.063003      0.103026      0.131270
O	      4.28712      4.11585      6.36141        -0.113283      0.129367      0.022340
O	      6.27275      6.15993      6.35233        -0.013902      0.075884      0.067878
O	      6.31807      4.31959      8.59806         0.080097      0.051543      0.181287
O	      8.24905      6.23772      8.38406         0.026538      0.005510      0.040684
O	      2.08158      6.38434      6.52260        -0.041505     -0.028049     -0.033718
O	      4.04840      8.38690      6.23052        -0.183115     -0.105283     -0.058735
O	      4.23088      6.31220      8.56710        -0.287959      0.029072     -0.313699
O	      6.19187      6.23880     10.56812         0.022735     -0.230279     -0.059355
O	      8.42863      8.45918     10.61836        -0.175072     -0.051523      0.198537
