# total energy = -217.50060534 eV
 
CRYSTAL
PRIMVEC
0.043989 6.048397 6.315420 
6.318618 0.009543 6.350942 
4.207978 4.051552 0.010510 
PRIMCOORD
36 1
Li	      8.36909      2.03303      6.31983         0.028498     -0.004375     -0.036084
Li	      4.26356      1.98228      2.23049         0.039008     -0.031232      0.010175
Li	      4.36055      6.15070     10.51678         0.058327     -0.040049     -0.027852
Li	      6.24922      1.94716      4.27443        -0.006974     -0.012516     -0.008857
Li	      6.33736      2.03702      8.37475        -0.004776      0.002694     -0.007776
Li	      4.27629      1.98507      6.26317         0.011785      0.001750     -0.007539
Li	      8.38154      6.12824     10.58966        -0.011355      0.046071      0.015145
Li	      6.33008      8.08769      6.43827        -0.040735     -0.006492      0.031848
Li	      6.34225      6.12374      8.39823        -0.015421     -0.007168     -0.090446
Mn	      8.47069      4.07044      8.42582        -0.013738      0.041155      0.061008
Mn	      6.36956      3.95320      6.30208         0.093330      0.025377      0.024273
Cr	      4.18052      4.00080      4.23704         0.026879      0.015867      0.031307
Fe	      2.11481      0.04138      2.10273        -0.025946     -0.093005      0.081487
Fe	      6.30805      4.11080     10.56562         0.070697     -0.036484     -0.042127
Fe	      4.23455      6.12211      6.33499        -0.065598      0.040706      0.056396
Fe	      8.32976      7.96977      8.49897         0.078128      0.144222     -0.082480
Co	      0.01728      0.02133      0.01534         0.264954     -0.001687     -0.060238
Ni	      2.15735      2.00661      4.22967         0.009088     -0.030399      0.075490
O	      2.12153      2.04968      2.16280        -0.013074      0.197932     -0.133741
O	      4.15254      4.06302      2.11470        -0.050195      0.004906      0.010623
O	      4.16779      2.07406      4.23462         0.047202     -0.017727      0.017055
O	      6.19080      4.02780      4.21473        -0.051576     -0.081893      0.038803
O	      6.37583      2.04425      6.34414        -0.170903     -0.017031     -0.053788
O	      8.56386      4.04154      6.51580        -0.011351      0.030811      0.052902
O	      2.14036      4.05621      4.03880         0.008178      0.108572     -0.093540
O	      4.23339      6.07856      4.33918        -0.054895     -0.011388     -0.046443
O	      4.20903      4.07153      6.28802        -0.022606     -0.088747     -0.004173
O	      6.24134      5.90006      6.32033         0.037432     -0.017890      0.051379
O	      6.48157      4.05650      8.43890         0.061332     -0.011648     -0.072642
O	      8.43116      6.04502      8.44693         0.030466     -0.311845     -0.036164
O	      2.06404      6.08105      6.44181        -0.059801     -0.033559     -0.097218
O	      4.30195      8.12935      6.23863        -0.091966      0.048454      0.059613
O	      4.16336      5.99186      8.33137         0.050164      0.049052      0.073728
O	      6.41006      8.13162      8.45164        -0.151808     -0.063842      0.016402
O	      6.37505      6.03044     10.78376         0.017258      0.166677      0.058298
O	      8.58368      8.12036     10.40445        -0.070008     -0.005272      0.135178
