# total energy = -219.27609083 eV
 
CRYSTAL
PRIMVEC
0.032330 6.233799 6.312394 
6.300718 0.001524 6.344066 
4.200736 4.176656 0.000810 
PRIMCOORD
36 1
Li	      8.39995      8.35879     12.48478        -0.015544      0.060888     -0.074240
Li	      8.41418     10.26865     10.56081         0.026905     -0.030826      0.053033
Li	      6.45318      8.29894     10.53634        -0.024557     -0.065851      0.095422
Li	      8.39494      6.24348      6.34437         0.001260      0.020476     -0.083158
Li	      6.36599      4.15552      6.35819        -0.018331      0.009500     -0.048436
Li	      6.19033      4.22023     10.46771         0.025437      0.009539     -0.087086
Li	      6.34052      8.29868      6.42730         0.079588     -0.053400     -0.092155
Li	      8.33026      8.35460      8.50568         0.024064     -0.109765      0.041886
Li	      6.41457      6.14450      8.51651         0.027093     -0.080969      0.117167
Mn	      4.34476      8.27623      8.45183        -0.238262     -0.143695      0.291393
Mn	      6.29415      6.27874      4.25937         0.059863      0.163740      0.254421
Cr	      8.40275      4.17707      8.38105        -0.063031      0.166671      0.147463
Fe	      6.31647      6.25621     12.53321        -0.093491      0.027359     -0.313442
Fe	      6.21430      2.19640      8.31131         0.037470      0.115006      0.169119
Fe	      4.25123      4.12910      4.34291        -0.185914      0.135703     -0.085322
Fe	      4.19801      6.22538      6.39106         0.185089     -0.151602     -0.397086
Co	      6.29334      4.17668      2.11185         0.091807     -0.598458     -0.304174
Co	      8.39465      6.31284     10.54443        -0.036094     -0.234099      0.318437
O	      2.12514      2.08504      2.27720         0.055407      0.040069     -0.227309
O	      4.25788      4.30449      2.13292         0.094572     -0.193367     -0.115851
O	      4.22913      2.16654      4.09000         0.059716     -0.105820     -0.100353
O	      6.23964      4.29216      4.06396         0.072319      0.191414      0.507890
O	      6.31997      2.03035      6.41018         0.049386     -0.069777     -0.069395
O	      8.53384      4.13843      6.39994        -0.139390      0.054591      0.074293
O	      2.19109      4.18517      4.09183         0.073251     -0.102530      0.018537
O	      4.10024      6.22041      4.24920        -0.115689      0.066067     -0.041423
O	      4.20890      4.22112      6.24165        -0.074944      0.034516      0.256708
O	      6.20128      6.25368      6.14962         0.050883      0.057178      0.144630
O	      6.44581      4.09921      8.41848         0.030919      0.103689     -0.060720
O	      8.45588      6.15386      8.44766        -0.130791      0.159961      0.236855
O	      2.11308      6.23275      6.46430        -0.012503      0.303718     -0.589368
O	      4.23575      8.31241      6.52784         0.095418     -0.065291      0.087565
O	      4.05585      6.18119      8.38632        -0.135894      0.216314      0.080663
O	      6.25356      8.51760      8.45983         0.129706      0.069030     -0.054464
O	      6.45185      6.21979     10.61216         0.100046      0.015528     -0.068830
O	      8.44355      8.16652     10.53726        -0.085765     -0.015510     -0.082671
