# total energy = -216.15107261 eV
 
CRYSTAL
PRIMVEC
0.043209 6.359779 6.152148 
6.291557 0.040708 6.155039 
4.220598 4.267462 0.000502 
PRIMCOORD
36 1
Li	      4.39532      8.42723      8.24865        -0.033481     -0.048086     -0.026443
Li	      6.27866      8.51866     10.09686        -0.030745      0.008633      0.037368
Li	      8.41022      4.40562      8.22434         0.008028      0.039703      0.029226
Li	      4.17828      4.18581      4.10010        -0.027188     -0.103265     -0.035334
Li	      8.35664      6.47288      6.20756        -0.021115      0.013263      0.016626
Li	      8.43958      6.39661     10.20109        -0.016420      0.007668      0.046514
Li	      4.24850      6.31621      6.21528         0.000510     -0.031020      0.018262
Li	      8.32808      8.49316      8.18272         0.015238     -0.012256      0.028031
Li	      6.42331      6.54378      8.15344         0.046699     -0.003493     -0.007699
Mn	      4.25109      6.40726     10.19499         0.072359     -0.040965     -0.170462
Mn	      6.33620      4.29855     10.21950        -0.031996      0.032119     -0.042228
Cr	      2.14550      2.13720      4.09342        -0.009660      0.013673      0.036890
Fe	      4.23715      4.28705      0.06813        -0.046619      0.010059     -0.154692
Fe	      2.12243      2.12226      0.08876         0.058708     -0.005044     -0.157512
Fe	     10.34701      6.40851      8.22597         0.135461      0.013617      0.069477
Fe	      6.17012      4.35576      6.23218         0.156620     -0.144521      0.016781
Cu	      6.45071      8.47373      6.21133         0.077479     -0.010469     -0.091952
Ni	      6.38252     10.56631      8.18845         0.017058      0.048200      0.023364
O	      6.36187      8.55501      8.11155        -0.032098     -0.076808      0.070615
O	      2.05391      2.09270      2.05403        -0.001161      0.090073      0.146770
O	      4.23491      4.33318      2.02344        -0.087032     -0.016783      0.114097
O	      4.14510      1.95712      4.09998         0.028560     -0.001561     -0.000148
O	      6.47895      4.34167      4.14341        -0.021202     -0.001950      0.062931
O	      6.37896      2.17252      6.16423        -0.063172      0.057650     -0.017838
O	      8.43490      4.21656      6.06991        -0.021874      0.046638     -0.023600
O	      1.99912      4.16240      4.20866         0.022976     -0.019235     -0.052446
O	      4.32244      6.59105      4.06750         0.006131     -0.000789      0.098345
O	      4.30735      4.27070      6.06880        -0.208850     -0.014730      0.017113
O	      6.31793      6.27358      6.09110        -0.008954     -0.002711     -0.008011
O	      6.34534      4.22734      8.25735         0.034150     -0.027056      0.068904
O	      8.49260      6.39640      8.24024        -0.143838      0.020443      0.012410
O	      2.05293      6.49692      6.10567         0.025319      0.091704     -0.128796
O	      4.20232      8.58964      6.04189         0.018452     -0.002352      0.017413
O	      4.21265      6.37372      8.34695         0.102229      0.026477      0.090813
O	      6.21565      6.28464     10.29161        -0.008100     -0.006724     -0.044371
O	      8.60398      8.67304     10.30723        -0.012472      0.049895     -0.060417
