# total energy = -216.10917845 eV
 
CRYSTAL
PRIMVEC
0.014513 6.258632 6.128440 
6.453891 0.017443 6.126202 
4.316744 4.184919 -0.002836 
PRIMCOORD
36 1
Li	      2.24833      8.27589      6.06997        -0.001769      0.004387      0.076454
Li	      2.23566      6.17292      8.13158        -0.011070     -0.033380      0.026140
Li	      6.61188      8.36941     10.18754        -0.096569      0.041544      0.011080
Li	      6.47442      2.19983      8.14493         0.020094      0.020240     -0.016893
Li	      6.43053      4.10714      6.15161        -0.001148     -0.025221      0.016854
Li	     10.57082      8.36906     10.24764         0.006174     -0.089855     -0.013310
Li	      2.14990      4.23628      6.16800         0.008707     -0.051158     -0.002945
Li	      4.12423      6.33238      6.12723        -0.010003     -0.014288     -0.017930
Li	      8.60194      8.39773      8.23190        -0.024421     -0.033163     -0.118019
Mn	      4.37986      4.22962      4.08806         0.094765     -0.138051      0.057684
Mn	      4.36558      2.12711      6.14479         0.059392      0.094195     -0.079773
Cr	      4.35303      8.32766      8.13704        -0.080242      0.311727      0.115514
Fe	      0.13088      6.25840      6.06291        -0.315312      0.107676      0.328209
Fe	      8.51879      4.16825      8.14727         0.171115     -0.048504      0.058505
Fe	      6.42256      6.23464      4.13436         0.327671      0.178441      0.028568
Fe	      6.42148      6.29262      8.17116         0.033193     -0.078718     -0.184777
Cu	      8.61812     10.29867     10.21352        -0.236890     -0.070162     -0.007386
Cu	      8.63959      6.35064     10.22592        -0.087513     -0.241140     -0.133397
O	      2.07870      6.29128      6.04730         0.129438      0.018097     -0.098025
O	      8.58976      8.23590     10.19948        -0.022345      0.289642      0.045339
O	      2.26472      2.17983      2.11361        -0.000163     -0.035564     -0.024353
O	      4.27756      4.11992      2.08048         0.043789      0.027362      0.029641
O	      4.21698      2.26749      4.07025         0.053831      0.011156     -0.210259
O	      6.36508      4.25249      4.05327         0.074577     -0.197915      0.009137
O	      6.27003      2.01477      6.15718         0.099669      0.006557     -0.017546
O	      8.67325      4.31760      6.11510         0.055245     -0.024488     -0.136879
O	      2.40276      4.26922      4.03227        -0.066843      0.000435      0.040464
O	      4.48794      6.14187      4.12108        -0.194415      0.057226      0.004687
O	      4.37469      4.07276      6.00121         0.014103      0.137067     -0.050300
O	      6.70270      6.29351      6.11332        -0.047569      0.023877      0.034104
O	      6.60002      4.26255      8.19064        -0.155037      0.001124      0.068836
O	      8.56416      6.26438      8.18301         0.007379      0.048900      0.370757
O	      4.30832      8.45871      6.18648        -0.010734     -0.127962     -0.124503
O	      4.36834      6.31034      8.21495        -0.060343     -0.173866      0.034527
O	      6.34383      8.25627      8.16401         0.060354      0.081038      0.039845
O	      6.28530      6.24167     10.21639         0.162891     -0.077258     -0.160051
