# total energy = -215.86900414 eV
 
CRYSTAL
PRIMVEC
-0.015955 6.249149 6.267380 
6.270885 -0.007835 6.259207 
4.174708 4.154607 0.000720 
PRIMCOORD
36 1
Li	      4.17617      6.22017     10.39823         0.017071     -0.033972     -0.002139
Li	      6.29955      8.28993     10.37161         0.039026     -0.032589     -0.027092
Li	      8.27409      4.20937      8.41661         0.005753      0.031559      0.025954
Li	      6.25151      6.25606      4.20675        -0.023395      0.004053      0.017672
Li	      0.00076      4.17411      4.19111        -0.010387     -0.017001      0.050916
Li	      6.18120      8.34312      6.24523        -0.066243      0.032841      0.019474
Li	      4.21151      6.25691      6.24722         0.052373     -0.001459      0.016628
Li	      8.34255      8.35390      8.39890        -0.021745      0.019295     -0.016372
Li	      6.25826      6.17033      8.38999        -0.023125     -0.050751     -0.001572
Mn	      6.29100     10.36522      8.41551         0.090714     -0.059138     -0.030641
Mn	      6.27193      4.17305      6.21708        -0.013989      0.053597      0.019714
Cr	      6.24740      6.21274     12.46866         0.017673     -0.057943     -0.047388
Fe	      4.21619      8.24695      8.42715        -0.090328      0.065332      0.000312
Fe	      6.25231      2.18322      8.41806         0.087241     -0.122206     -0.011816
Fe	      4.10597      2.10211      6.20748         0.068108     -0.006850      0.061475
Fe	      8.31346      6.23373     10.40634         0.002909      0.005455     -0.060931
Ni	      2.10345      8.31129      6.23045        -0.013428      0.061908     -0.051748
Ni	      4.15867      4.18206      4.18522        -0.034865      0.025881      0.012521
O	      2.07750      1.95495      2.08187         0.009128      0.013977      0.075099
O	      4.29320      4.16966      2.02939        -0.054738      0.029857     -0.085583
O	      4.14035      2.13765      4.18437         0.004158     -0.100791      0.001275
O	      6.23894      4.14140      4.28893         0.109018     -0.007490      0.016237
O	      6.23408      2.10105      6.31450        -0.064754     -0.014644     -0.043354
O	      8.32640      4.17906      6.21314        -0.008645      0.079652      0.015462
O	      2.11748      4.36401      4.17829        -0.085014     -0.203642      0.017478
O	      4.08485      6.24339      4.11120         0.120258      0.106320      0.094732
O	      4.35028      4.09528      6.23630         0.043209      0.095947      0.136029
O	      6.32521      6.08119      6.27350        -0.116173     -0.054509      0.003074
O	      6.30949      4.09596      8.18308        -0.000096      0.106417     -0.079000
O	      8.43020      6.22798      8.30668        -0.057294     -0.012671     -0.010205
O	      1.95753      6.26895      6.21081        -0.017475     -0.143649      0.081514
O	      4.11818      8.41622      6.38989         0.111894     -0.014819     -0.043931
O	      4.04489      6.29288      8.38052        -0.006179     -0.088275     -0.025236
O	      6.18071      8.43471      8.35371         0.087625      0.031618     -0.015508
O	      6.33209      6.20226     10.51568        -0.152792      0.012612     -0.016004
O	      8.35177      8.09800     10.45904        -0.005492      0.246075     -0.097047
