# total energy = -221.85931049 eV
 
CRYSTAL
PRIMVEC
-0.000992 6.292642 6.333923 
6.305512 0.039236 6.293436 
4.222712 4.187284 0.007226 
PRIMCOORD
36 1
Li	      4.36236      4.22329      0.18579         0.027468      0.022051      0.038501
Li	      2.13858      8.25154      6.47639         0.007635      0.075117      0.032476
Li	      2.02601      6.37064      8.28190         0.015890     -0.023150      0.055273
Li	      4.16322      8.47305      8.28362         0.007651     -0.000578     -0.036916
Li	      6.34733      8.38534     10.51636         0.038258     -0.010173      0.001950
Li	      0.12163      2.00412      2.05240         0.007426     -0.027837      0.029836
Li	      2.20893      4.06753      2.09651         0.032770      0.001922     -0.012155
Li	      2.09748      6.27863      4.38258        -0.077170      0.022321     -0.036813
Li	      2.01759      4.37814      6.36693        -0.076917     -0.034600     -0.017742
Mn	      4.21705      0.06577      4.18770         0.064150     -0.066846      0.008075
Mn	      2.07779      2.12222      4.13109         0.005504     -0.016495     -0.129429
Cr	      6.29010      6.35786      8.36849        -0.013992     -0.028655      0.068972
Fe	      4.13576      4.21091      4.06257         0.009339      0.004814      0.155483
Fe	      4.31910      2.07321      6.36435         0.015999      0.002224     -0.005177
Fe	      6.38844      4.12798      6.37242         0.053022     -0.033389      0.023218
Fe	      4.21841      8.37221      4.30266         0.009980      0.012894     -0.136601
Fe	      8.30776      8.43071      8.41419         0.119325      0.032470     -0.005921
Co	      4.12981      6.32759      6.29838        -0.252642      0.059379      0.065837
O	      2.10348      2.08847      2.28101         0.027784      0.004726      0.109997
O	      4.23785      4.18952      2.24141         0.002987      0.002485     -0.197953
O	      4.26235      2.09364      4.33211        -0.001962     -0.034673     -0.008418
O	      6.39925      4.29532      4.29769         0.018744     -0.012946     -0.033466
O	      6.26464      2.17802      6.34293         0.058107     -0.002413      0.003696
O	      8.36919      4.29382      6.36149         0.022495     -0.053474     -0.019804
O	      2.07999      4.10036      4.20695        -0.013222     -0.000912     -0.016152
O	      4.13029      6.28136      4.34954         0.016939     -0.040272      0.023755
O	      4.28732      4.24136      6.24933         0.015919     -0.079525      0.000924
O	      6.26812      6.22580      6.28845         0.030989      0.026474     -0.030581
O	      6.20614      4.29735      8.40320        -0.004832      0.032358      0.032502
O	      8.30524      6.42218      8.32906        -0.036411     -0.037809      0.051700
O	      2.23383      6.31231      6.32132         0.127789     -0.031332     -0.002175
O	      4.19911      8.25586      6.22284         0.004241      0.050294      0.122412
O	      4.27390      6.27590      8.26082        -0.008157      0.049775     -0.048903
O	      6.38877      8.32695      8.40859        -0.155384     -0.000608     -0.014247
O	      6.19413      6.25543     10.39718        -0.059124      0.066425     -0.057360
O	      8.46762      8.58456     10.42701        -0.040596      0.069956     -0.014792
