# total energy = -220.03444798 eV
 
CRYSTAL
PRIMVEC
0.032893 6.286236 6.255326 
6.367210 0.022841 6.264452 
4.246553 4.197904 0.014754 
PRIMCOORD
36 1
Li	      4.30673     10.39854      6.29105        -0.000248      0.009864      0.024621
Li	      2.34529      8.34350      6.32716         0.048856      0.034691      0.051636
Li	      4.17269      8.32432      8.27620        -0.050404      0.020046     -0.011563
Li	      4.34855      6.28337     10.34200         0.002471      0.000985      0.031401
Li	      0.09874      2.09312      2.09864         0.066169      0.058135     -0.004266
Li	      2.10445      2.09934      4.10609        -0.018474      0.077147     -0.051177
Li	     10.57782      8.42166     10.51149         0.007585     -0.002507     -0.010115
Li	      4.15626      6.41556      6.29138        -0.045260      0.028115     -0.008064
Li	      6.31702      6.27819      8.40872        -0.026874     -0.047846      0.019889
Mn	      2.13677      4.15727      2.11094         0.031560     -0.017691      0.061383
Mn	      4.27400      2.09837      6.26428         0.030962     -0.050806      0.005206
Cr	      4.27391      4.25002      8.35420         0.105483     -0.092197     -0.043954
Fe	      6.39559      8.31788     10.40197        -0.019913      0.062129      0.011600
Fe	      4.28973      4.28327      4.08115        -0.089673     -0.047303      0.125421
Fe	      6.41364      4.24650      6.26812        -0.002139      0.015609      0.021418
Fe	      2.14731      6.31669      4.28315         0.047971     -0.098425     -0.098643
Fe	      6.17583      8.36473      6.33908         0.195598     -0.062365     -0.077528
Cu	      2.13978      0.09827      2.05133        -0.071880      0.156655     -0.016403
O	      4.14663      6.19665      8.33373         0.120077     -0.046910      0.030249
O	      2.12942      2.29176      2.07734         0.023973     -0.238326     -0.003442
O	      4.35835      4.20052      2.16575         0.000616      0.013261     -0.157488
O	      4.33190      2.16981      4.33202        -0.022772     -0.030023      0.023199
O	      6.31981      4.17739      4.23992         0.065970     -0.027677     -0.014155
O	      6.22636      2.20732      6.19959        -0.058525     -0.058306     -0.002903
O	      8.44039      4.36091      6.33452         0.040331      0.101019     -0.156883
O	      2.20545      4.24786      4.16229         0.024973      0.025267      0.135286
O	      4.14462      6.21284      4.22257         0.044616      0.098556      0.037796
O	      4.27647      4.06613      6.29653        -0.048928     -0.023075     -0.013792
O	      6.58150      6.31705      6.22705         0.024136     -0.007811     -0.026972
O	      6.29376      4.25126      8.23481        -0.149122      0.015845      0.067830
O	      8.53822      6.26708      8.26502         0.010372      0.265935     -0.101646
O	      2.14177      6.19210      6.24838        -0.005350      0.015672      0.102377
O	      4.34709      8.35974      6.26413        -0.225770     -0.025773     -0.010138
O	      6.48540      8.31955      8.34659        -0.007279     -0.087741      0.053939
O	      6.50537      6.37730     10.44374        -0.052640     -0.091562      0.002304
O	      8.45474      8.34974     10.38028         0.003533      0.057411      0.003577
