# total energy = -220.70737972 eV
 
CRYSTAL
PRIMVEC
0.044700 6.347679 6.310982 
6.158213 0.024129 6.329674 
4.116877 4.255097 0.005347 
PRIMCOORD
36 1
Li	      0.07936      6.32483      6.32246         0.057387     -0.005218     -0.011381
Li	      4.26615      8.56006      8.42940         0.047973      0.058320      0.014166
Li	      6.12213      2.16130      4.18435        -0.018427      0.033691      0.007645
Li	      4.11954      6.34062      2.11370        -0.018062     -0.018843      0.017960
Li	      4.18027      4.22355      4.17521         0.042919     -0.016039      0.006052
Li	      6.16378      4.23973      6.28553        -0.041107      0.006477     -0.093376
Li	      2.05453      6.33001      4.22383        -0.024111     -0.048939      0.075347
Li	      6.17400      8.51362      6.38412        -0.003589     -0.001882      0.029003
Li	      6.19261      6.41714      8.46495        -0.021321      0.010893      0.026477
Mn	      6.19139      4.28757     10.52916         0.039803     -0.031749     -0.006019
Mn	      4.17426      6.36732      6.34358        -0.008785     -0.060300     -0.017018
Cr	      2.05871      2.12419      4.18011        -0.055798      0.058463     -0.033203
Fe	      1.97452      2.10120      0.07312        -0.033413      0.048934     -0.071427
Fe	      4.16519      6.39438     10.50435         0.005594     -0.012426     -0.048445
Fe	      2.17874      4.28499      2.08474        -0.242020      0.065623      0.055097
Fe	      4.21360      2.17198      6.32739        -0.046301     -0.015621     -0.063489
Fe	      8.16597      8.44556      8.40783         0.259149     -0.084548      0.027609
Ni	      6.08772      4.20288      2.12812         0.029013      0.082344     -0.049762
O	      2.08157      2.19788      2.08832        -0.006738     -0.055220      0.104015
O	      4.05925      4.25864      2.15110         0.096288      0.017281     -0.006453
O	      4.06997      2.04984      4.32016         0.037998      0.095578     -0.130981
O	      6.24256      4.38120      4.15593        -0.082730     -0.020454      0.211308
O	      6.19208      2.12602      6.26861         0.001676     -0.014250     -0.022422
O	      8.18563      4.27412      6.34976        -0.000656     -0.012560     -0.048716
O	      1.96048      4.18368      4.13321        -0.015240      0.025060      0.060384
O	      4.17319      6.52834      4.27127        -0.012914      0.021019      0.013868
O	      4.14433      4.17278      6.39626        -0.024057      0.042799     -0.086128
O	      6.11684      6.37360      6.19758         0.072773      0.026382      0.039180
O	      6.17137      4.24396      8.61447         0.008703     -0.036155      0.016217
O	      8.22543      6.37344      8.31885        -0.032787     -0.031253      0.126458
O	      2.22999      6.45142      6.36594         0.004196     -0.112286     -0.153093
O	      4.07176      8.48594      6.16205         0.083510      0.081513      0.012394
O	      4.13605      6.26425      8.43811         0.096434      0.061779     -0.045621
O	      6.26516      8.49726      8.47585        -0.237261     -0.089690      0.014678
O	      6.14093      6.19680     10.54873         0.088940     -0.033045      0.005981
O	      8.35231      8.55835     10.54787        -0.047038     -0.035680      0.023694
