# total energy = -206.76247390 eV
 
CRYSTAL
PRIMVEC
-0.041316 6.085897 6.258577 
6.291267 -0.042081 6.260398 
4.175622 4.039837 -0.010404 
PRIMCOORD
36 1
Li	      2.05195      8.03180      6.24536        -0.061937      0.012008     -0.052815
Li	      4.08364      6.08067      2.20302        -0.135866      0.016543      0.104158
Li	      6.12927      6.13653      4.15804        -0.154956     -0.070317      0.023211
Li	      4.03260      4.15782      4.20381         0.000087      0.049680      0.012315
Li	      8.34329      6.08457      6.29332        -0.026367      0.057128      0.058285
Li	      4.23720      7.97623      4.20867        -0.048034     -0.048575     -0.071699
Li	      2.16306      6.02199      4.20776         0.097520      0.047345     -0.195665
Li	      4.15060      6.04107      6.03895         0.100919     -0.120894     -0.152166
Li	      6.33010      6.02587      8.25700         0.119126      0.017758     -0.054904
Mn	      4.12434      8.05671      8.30284         0.119249     -0.040768      0.415784
Mn	      4.23783      0.00066      4.22591         0.069673     -0.174761      0.121726
Mn	      6.24658      4.08032      6.23381        -0.037758      0.307370     -0.004192
Cr	      8.38019      8.01526      8.31931         0.013460     -0.081994      0.107025
Co	      6.30150      2.01485      4.18140         0.095303      0.179434      0.092503
Cu	      4.16598      4.04929      0.02129         0.083973      0.095902     -0.006304
Cu	      2.06494      0.02948      2.02650        -0.053422      0.010604      0.129709
Cu	      2.02642      3.97952      6.09165         0.088877     -0.309301      0.002370
Ni	      8.30674      4.05546      8.41256        -0.097900      0.110060      0.008776
O	      4.15389      6.07705      4.10984         0.014322     -0.037083      0.071982
O	      1.97133      5.93441      6.31383        -0.085047      0.136549     -0.134667
O	      4.11980      7.95220      6.46511         0.072587      0.141306     -0.167968
O	      2.27673      1.95044      2.10292         0.031236      0.113724     -0.052530
O	      4.04614      3.88446      1.99529         0.051934     -0.010836      0.088310
O	      4.35760      1.94169      4.06212         0.036625     -0.014389     -0.125973
O	      6.42125      3.96322      4.21393         0.158426     -0.092564     -0.040062
O	      6.28334      2.15881      6.08819         0.063891     -0.604017     -0.060197
O	      8.27560      4.04118      6.15514         0.124335     -0.010473      0.029384
O	      2.04722      4.05068      4.14796        -0.010945     -0.016810     -0.023015
O	      4.32160      4.05508      6.35446        -0.317624      0.053184     -0.086968
O	      6.29436      6.00607      6.20252         0.035500      0.171187      0.032608
O	      6.22454      4.00577      8.15725         0.113856      0.058404      0.039261
O	      8.33280      6.10177      8.37889        -0.115576     -0.105435     -0.083801
O	      4.28176      6.08587      8.56476        -0.030465      0.072139     -0.003370
O	      6.24258      8.16853      8.45836        -0.094896     -0.156659      0.099833
O	      6.11489      6.16366     10.59223        -0.118889      0.076983     -0.167739
O	      8.24083      8.18477     10.36528        -0.101216      0.167568      0.046795
