# total energy = -207.96984576 eV
 
CRYSTAL
PRIMVEC
0.024526 6.218373 6.165287 
6.133456 0.024056 6.165870 
4.129518 4.186699 -0.024750 
PRIMCOORD
36 1
Li	      8.18893      2.16042      6.17702         0.034262      0.042410      0.069717
Li	      6.27287     10.39081      8.26895        -0.055813     -0.012943      0.062180
Li	      4.13172      8.19801      8.29867        -0.004735     -0.045903     -0.010202
Li	      4.03298      0.06086      4.07766        -0.025090      0.058497      0.081634
Li	      4.20063      4.07376      4.11097         0.016916     -0.049559     -0.029191
Li	      4.09855      2.06172      6.10813         0.055056     -0.071830     -0.065229
Li	      6.22049      4.19888      6.08584         0.095965     -0.028679     -0.038178
Li	      8.17370      6.32060     10.24690        -0.018441     -0.015886      0.029885
Li	      6.12016      6.29612      8.17841         0.061407     -0.016633     -0.021920
Mn	      6.13453      0.07201      6.19607        -0.095179     -0.042614     -0.157694
Mn	      4.13709      6.25140      2.05426         0.268566     -0.124402      0.160854
Mn	      2.09025      4.14243      6.16676        -0.197883      0.095469     -0.532262
Cr	      6.07444      4.23639     10.25845         0.099714     -0.010544      0.268529
Co	      8.20030      8.33580      8.15372        -0.419528      0.395279      0.183576
Cu	      6.11570      2.19134      4.08165        -0.215132      0.040888      0.057773
Cu	      2.10121      4.17993      2.05210        -0.102404      0.067327      0.295102
Cu	      2.13011      2.00056      4.10825         0.299262     -0.197381      0.038434
Cu	      4.11979      6.19413      6.16664        -0.083443      0.210271     -0.276979
O	      6.13706      6.40029      6.03956        -0.190236     -0.112088      0.143333
O	      4.14098      6.06509      8.07701         0.183937      0.109359      0.073622
O	      6.28425      8.27938      8.02117        -0.537742     -0.138371      0.352177
O	      8.18647      8.37162     10.10908         0.126404      0.017010     -0.152049
O	      1.94269      2.08461      2.16256        -0.000075      0.171075     -0.096678
O	      4.17129      4.34391      1.96609        -0.060210     -0.071043      0.047254
O	      4.15537      2.10342      4.06478         0.198017      0.012582     -0.017145
O	      6.16232      4.14718      4.14567        -0.011530     -0.124236     -0.092771
O	      6.21716      1.99164      6.33876        -0.041624      0.081758     -0.152987
O	      8.36637      4.18313      6.28891        -0.039866      0.069250     -0.319130
O	      1.95640      4.15663      4.12397        -0.042705      0.185868     -0.001377
O	      4.14029      6.37677      4.05980        -0.276672      0.023347      0.115724
O	      3.95809      4.09762      6.22737         0.198042     -0.293792     -0.023673
O	      6.02414      4.06404      8.24966         0.736065      0.008129     -0.023110
O	      8.35613      6.36421      8.21222        -0.131280     -0.361386     -0.047856
O	      1.99890      6.09116      6.15363         0.193487      0.137125      0.025675
O	      4.21414      8.48832      6.09789         0.034129      0.101628     -0.006843
O	      6.13415      6.27576     10.42444        -0.051643     -0.109981      0.059803
