# total energy = -210.60169810 eV
 
CRYSTAL
PRIMVEC
-0.008639 6.147063 6.222333 
6.220594 0.006634 6.206851 
4.162932 4.103595 -0.011517 
PRIMCOORD
36 1
Li	      2.08122      8.14801      6.26887         0.052045     -0.004109      0.021350
Li	      1.98253      0.12895      2.09857         0.025404      0.043109      0.007458
Li	      4.07246      2.11075      2.18380         0.006527     -0.026805      0.017022
Li	      6.14048      2.10074      4.10105         0.006849      0.022489     -0.041262
Li	      4.25341      6.08600      2.13242        -0.031375      0.014318      0.089776
Li	      2.11257      2.02690      4.03740        -0.048831     -0.032090      0.019670
Li	      4.21563      4.02099      4.08588         0.043518     -0.000161     -0.011002
Li	      4.16011      2.03089      6.11488         0.002862     -0.016529      0.009557
Li	      2.13566      6.19073      4.18054         0.027576      0.030624     -0.009630
Mn	      4.10902      0.05975      4.15011        -0.093645     -0.025054      0.042419
Mn	      2.13153      4.04548      2.09532         0.005646      0.107222     -0.063645
Mn	      6.22745      6.17337      8.27367        -0.015467     -0.012200     -0.052294
Cr	      2.09881      4.11640      6.15956         0.103239     -0.088350     -0.015808
Co	      6.22433      3.89992      6.11726         0.016756      0.017038     -0.034888
Co	      4.13584      6.16991      6.19701        -0.095951     -0.077603      0.046595
Cu	      4.14661      8.15684      4.16010        -0.028442      0.046823     -0.130533
Ni	      6.23759      0.09516      6.24784         0.188878     -0.178197     -0.107009
Ni	      8.30761      8.16397      8.28320         0.012327     -0.016097     -0.028922
O	      4.13253      6.22216      4.31551         0.068318     -0.179194     -0.038576
O	      2.06131      2.20909      2.05913         0.004968     -0.024377      0.028633
O	      4.00733      4.13537      2.04424         0.031697     -0.034626      0.116008
O	      4.14993      1.92289      4.15584        -0.038915      0.040219      0.034165
O	      6.33086      4.10377      4.17600        -0.006587      0.010631      0.000668
O	      6.19757      2.12291      6.23453         0.010407      0.241747      0.007593
O	      8.30646      4.11236      6.31656        -0.209459     -0.011543      0.099106
O	      1.98775      4.10015      4.11462         0.127373      0.016205     -0.036495
O	      4.14640      4.22274      6.21044        -0.051985     -0.031241     -0.064297
O	      6.11949      6.12826      6.32153         0.077110      0.024183      0.101744
O	      6.27948      4.18737      8.25765         0.085023      0.051097     -0.008287
O	      8.13610      6.09463      8.30283        -0.059652     -0.111061     -0.084339
O	      2.13287      6.07615      6.26201        -0.008651      0.040898      0.003885
O	      4.26281      8.15542      6.13521         0.012470      0.016129      0.109721
O	      4.28666      6.11957      8.15811        -0.002058      0.132880      0.030503
O	      6.27395      8.06217      8.16744        -0.149840     -0.052646     -0.064293
O	      6.11579      6.14304     10.25470         0.045342      0.037327     -0.094586
O	      8.37949      8.32566     10.30306        -0.113478      0.028944      0.099993
