# total energy = -209.91567799 eV
 
CRYSTAL
PRIMVEC
0.052636 6.276306 6.188440 
6.264403 0.034996 6.205465 
4.193152 4.212613 0.006562 
PRIMCOORD
36 1
Li	      6.25816      4.14073      2.14109         0.078513      0.016520      0.069969
Li	      8.34472      4.21709      4.19521        -0.106857      0.022573     -0.033612
Li	      6.36080      8.40565     10.29933         0.052648      0.027790      0.041257
Li	      4.22646      4.18806      4.20581         0.023795     -0.000032      0.034986
Li	      4.19411      2.23479      6.20163         0.045985      0.074335     -0.034080
Li	      6.22471      4.25142      6.18021        -0.072108      0.010255     -0.070371
Li	      8.35669      6.40197     10.30175        -0.017009      0.001207      0.007244
Li	      2.22289      4.15735      6.16447         0.064482      0.030215     -0.060476
Li	      4.23914      4.17842      8.23787        -0.031847      0.049869     -0.017874
Mn	      8.37000      8.41942     12.34996         0.051040     -0.069024     -0.302845
Mn	      4.29213      8.36581      8.29606        -0.315280     -0.284399     -0.036325
Mn	      4.20069      6.22753      6.19086        -0.077876     -0.298988     -0.055057
Cr	      8.37247      4.24739      8.28255         0.251270     -0.207955     -0.077356
Co	      6.33982      6.31891     12.31800         0.248536      0.125859     -0.652352
Co	      6.33085      6.21175      4.20441         0.120164      1.116728     -0.076940
Cu	     10.40313      6.37414      8.30723         0.128294      0.059887      0.055013
Cu	      6.34560      6.35231      8.33025         0.145326     -0.159475     -0.321684
Ni	      6.28526      4.25364     10.31480         0.114950     -0.248859      0.160821
O	      8.46461      6.21744      8.23558        -0.468428      0.475662      0.113349
O	      6.15951      8.33059      8.28034         0.142588      0.052419     -0.051538
O	      2.16138      2.17331      1.98654         0.037625     -0.202522      0.360687
O	      4.15802      4.01426      1.96519         0.011222      0.190593     -0.035042
O	      4.15047      2.11522      3.98673        -1.128235     -0.246476      0.437998
O	      6.28413      4.43507      4.10983        -0.020095      0.123971      0.138219
O	      6.42235      2.10523      6.27578        -0.074434     -0.295191     -0.070051
O	      8.41532      4.07238      6.26758         0.123898      0.129175     -0.138451
O	      2.08265      3.99971      4.03095         0.050131     -0.521412      0.532292
O	      4.26041      6.36533      4.21102         0.928556     -0.492656     -0.079687
O	      4.17589      4.38727      6.22282        -0.081162      0.069679      0.054827
O	      6.15176      6.33266      6.16787         0.158233     -0.211783     -0.930276
O	      6.39061      4.36750      8.30575        -0.239445     -0.027193     -0.270112
O	      2.21088      6.42617      6.18866        -0.168619     -0.030165     -0.005469
O	      4.10671      8.29299      6.25552         0.101966      0.262811      0.182716
O	      4.20562      6.40917      8.11129         0.136700      0.022420      0.272822
O	      6.34356      6.26092     10.39720        -0.080158      0.486627      0.909620
O	      8.42119      8.45388     10.48983        -0.134372     -0.052468     -0.052224
