# total energy = -209.04455985 eV
 
CRYSTAL
PRIMVEC
0.017951 6.065634 6.492851 
6.200719 0.020617 6.490868 
4.134607 4.043207 0.012748 
PRIMCOORD
36 1
Li	      2.07874      2.03575      0.17969         0.067033     -0.004072     -0.048202
Li	      4.02229      2.07147      2.17333         0.048808     -0.027503     -0.035114
Li	      2.09214      3.92851      2.22666        -0.035544      0.141369      0.026796
Li	      2.09653      2.08692      4.30243        -0.035067      0.029593     -0.006989
Li	      4.10866      4.00768      4.39632         0.010629      0.011695      0.088470
Li	      4.15864      2.05158      6.37630        -0.054571      0.032733      0.067296
Li	      6.14660      4.07857      6.49158        -0.020919      0.073850      0.044860
Li	      0.11421      3.97810      4.34623         0.029201      0.010787      0.025714
Li	      2.06761      4.01947      6.39150         0.000254     -0.012142     -0.028619
Mn	      4.14755     10.05037      6.49148         0.001757     -0.483061     -0.279021
Mn	      2.14728      6.00248      4.32942        -0.154063     -0.277692     -0.043931
Mn	      4.15635      4.08231      8.65044         0.130515     -0.113575     -0.426605
Cr	      8.24654      4.08994      4.39753         0.106762      0.021312      0.121784
Co	      4.15836      6.12759      6.44502         0.126826     -0.060638      0.141378
Co	      6.22758      6.07723      8.52443         0.027826      0.070926     -0.427931
Cu	      6.14202      4.07414      2.24991        -0.064285     -0.011400     -0.105398
Cu	      6.16431      2.08548      4.39055        -0.004617     -0.142243      0.086268
Cu	      0.05842      2.03750      2.13117        -0.046801      0.019304     -0.027448
O	      2.10908      4.17647      4.25740        -0.026724      0.097323     -0.056976
O	      6.02534      6.10900      6.56871         0.107834     -0.058474      0.481443
O	      6.35087      8.12116      8.75162        -0.065668     -0.356570      0.065273
O	      1.98037      1.95464      2.20442         0.140869     -0.022139      0.045908
O	      4.17924      4.07399      1.89420         0.068873     -0.270358      0.034005
O	      4.20291      1.98982      4.33670        -0.158303     -0.008110     -0.053416
O	      6.30739      4.01246      4.47428        -0.045264      0.158429      0.009318
O	      6.21910      1.88504      6.41714         0.009201      0.115407      0.070562
O	      8.43495      4.04109      6.37237         0.007322     -0.025382      0.058876
O	      4.01011      6.04003      4.39888        -0.027842      0.035669     -0.014392
O	      4.09883      4.19579      6.74051         0.090939     -0.383377      0.188502
O	      6.08037      4.06829      8.64884        -0.038469      0.566567     -0.002254
O	      8.32836      6.18269      8.78509        -0.232547      0.105985      0.034672
O	      2.08845      6.06977      6.23591        -0.101704      0.027274      0.007794
O	      4.13624      8.08800      6.51842         0.025485      0.769448      0.030750
O	      4.11052      6.01033      8.80766        -0.063970     -0.008720     -0.070226
O	      6.26893      6.09515     10.91144         0.083918     -0.013363     -0.038768
O	      8.25413      8.07351     10.64139         0.092305     -0.008852      0.035618
