# total energy = -209.25364482 eV
 
CRYSTAL
PRIMVEC
0.007341 6.273445 6.162903 
6.142210 0.014985 6.154878 
4.104404 4.186480 0.000582 
PRIMCOORD
36 1
Li	      6.16151     10.36728      8.30193        -0.025370     -0.075129      0.066356
Li	      4.16916      8.33977      8.25245         0.003086     -0.026670      0.040436
Li	      6.11082      8.37084     10.19127         0.018354     -0.013529     -0.024177
Li	      4.09229      6.28211      2.09617        -0.049068      0.027838      0.074552
Li	      4.12057      4.20249      4.05508         0.087802      0.064396      0.012499
Li	      4.12207      2.14813      6.10521        -0.005801      0.044464     -0.004508
Li	     10.22482      8.38179     10.23768        -0.020865      0.001295     -0.027971
Li	      8.16237      8.41163      8.23724         0.003613     -0.044835      0.012290
Li	      6.12391      6.33455      8.25721         0.039534      0.012341      0.043145
Mn	      2.08373      8.36379      6.17690        -0.004202      0.001265     -0.014913
Mn	      6.10652      4.19162      6.16587        -0.141706     -0.011268     -0.134716
Mn	      6.17229      8.32801      6.20521         0.046261     -0.036158      0.154749
Cr	      2.09045      4.24265      2.09305         0.008483      0.038702      0.042276
Co	      4.13089      6.32424     10.14178         0.366177      0.215790     -0.494958
Co	      8.19678      6.31891     10.23082        -0.225721     -0.116443     -0.106726
Ni	      6.13811      0.06322      6.16299         0.017005     -0.034953     -0.051257
Ni	      2.03552      2.06438      4.04456        -0.132563     -0.173792     -0.061292
Ni	      4.11042      6.27175      6.21105        -0.073030     -0.082442      0.044738
O	      2.03654      2.22915      1.97488         0.010378      0.116581     -0.208665
O	      3.95533      4.18994      2.02361        -0.188521      0.026041      0.024504
O	      4.06531      1.86850      4.09656         0.198766      0.554398      0.214048
O	      6.23760      4.21731      4.19105        -0.770205     -0.149267      0.388894
O	      6.23641      2.19091      6.15925         0.120241      0.167166      0.034608
O	      8.17823      4.17380      6.18028        -0.205117     -0.119916      0.387520
O	      2.04391      4.14691      4.10717         0.015363      0.700067      0.051252
O	      3.96465      6.28469      4.17180         0.081850      0.045664     -0.002784
O	      4.14568      4.19357      6.16113         0.135385     -0.083817     -0.008947
O	      6.12258      6.22821      6.11770         0.143901     -0.097716     -0.009723
O	      6.27871      4.19437      8.08395         0.135336     -0.009793     -0.132194
O	      8.19332      6.13592      8.31964        -0.004627      0.002438      0.407205
O	      2.05209      6.32290      6.07592        -0.068735      0.069644     -0.215393
O	      4.07627      8.36597      6.18574        -0.006772      0.058508     -0.005832
O	      4.09187      6.24021      8.29452         0.022087     -0.133180     -0.438306
O	      6.16960      8.38088      8.03958        -0.026414     -0.044683     -0.277092
O	      6.21438      6.31847     10.32686         0.493187     -0.001466     -0.030842
O	      8.22341      8.49966     10.38050         0.001906     -0.891540      0.251226
