# total energy = -212.35236102 eV
 
CRYSTAL
PRIMVEC
-0.048295 5.973041 6.545164 
6.127838 -0.010132 6.505103 
4.113606 3.984938 -0.035078 
PRIMCOORD
36 1
Li	      8.21610      7.95874     12.77615        -0.025737     -0.003534      0.210987
Li	      4.03770      8.00141      8.46485        -0.053447     -0.063715     -0.014919
Li	      6.20407      7.95113     10.81428        -0.117748      0.020125     -0.134771
Li	      4.10313      5.96255      2.19559         0.169620     -0.039069     -0.018487
Li	      6.11718      5.94859      4.27141        -0.025325     -0.010080     -0.146840
Li	     10.13468      7.95709     10.87093         0.114229     -0.037322      0.006748
Li	      8.14732      6.06346     10.81128         0.066171     -0.146741     -0.007768
Li	      6.03655      8.03548      6.50303        -0.004769     -0.035675      0.156682
Li	      8.16283      7.97613      8.90155        -0.121308      0.096923     -0.163058
Mn	      8.19391      5.96631      6.54574         0.004382     -0.029397      0.268771
Mn	      4.02605      6.07094      6.42847        -0.107066      0.020283      0.300725
Mn	      6.09055      6.03380      8.67195        -0.142747      0.661823     -0.531960
Cr	      4.10121      3.94139      4.37040        -0.177400      0.094321     -0.264689
Co	      1.96288      5.95741      8.61426        -0.097394     -0.489985     -0.225151
Co	      2.07292      3.90201      2.25582        -0.062779     -0.189471     -0.038610
Co	      6.16031      3.92464      6.55232         0.015927      0.055737      0.231146
Cu	      6.16482      5.94146     12.90785         0.028885      0.057687      0.095963
Cu	      8.12113      9.91467     10.81635        -0.013347      0.082409      0.011700
O	      5.99155      5.99030     10.52273        -0.307412     -0.079796      0.432247
O	      8.14253      8.02245     10.83184         0.029443      0.385627     -0.052615
O	      2.04048      1.76773      2.26625        -0.102631      1.403776      0.122654
O	      4.05152      3.94440      2.38458         0.117737     -0.008065      0.172412
O	      4.03991      1.92034      4.68100         0.068231     -0.206455     -0.010533
O	      6.13892      3.94715      4.60766         0.377877     -0.093265      0.122292
O	      5.97653      1.97135      6.64151        -0.025506      0.083409      0.002784
O	      8.13512      4.01784      6.77996        -0.073419     -0.072870     -0.062211
O	      2.11096      3.98316      4.12287         0.078661     -0.004575      0.037283
O	      4.07837      5.91766      4.54614        -0.042998     -0.071073     -0.104920
O	      4.20021      3.91702      6.43240         0.003356      0.021321     -0.165949
O	      6.19058      5.89352      6.63591         0.060358     -0.012467     -0.042539
O	      6.20795      4.06342      8.52728        -0.004440     -0.106324     -0.034160
O	      8.03783      6.04605      8.51735         0.085907     -0.332979      0.105243
O	      2.00473      5.98060      6.58643         0.269954      0.126930     -0.038689
O	      4.09856      8.01696      6.43644        -0.070880     -0.128470     -0.170401
O	      4.15121      5.99164      8.39618         0.060159     -0.093918     -0.103122
O	      6.09334      8.03382      8.63756         0.025454     -0.855126      0.053755
