# total energy = -203.98323513 eV
 
CRYSTAL
PRIMVEC
0.029966 6.222958 6.200225 
6.175003 0.019635 6.210619 
4.120526 4.159404 0.009443 
PRIMCOORD
36 1
Li	      8.23853      2.20832      6.13357         0.020363      0.011367     -0.033305
Li	      8.17099      4.18589      4.23579         0.103021      0.054202      0.001410
Li	      6.19166      2.15228      4.21257        -0.011227     -0.056690     -0.009609
Li	      4.19919      4.11215      4.19443        -0.056185     -0.041520      0.036662
Li	      4.16116      2.07715      6.05669        -0.010392      0.017201     -0.103026
Li	      6.13463      4.11102      6.11693        -0.091704     -0.041165      0.069816
Li	     10.23996      8.32709     10.37364        -0.030428      0.020406      0.035126
Li	      4.15321      6.17689      6.21788        -0.040130     -0.054469      0.024627
Li	      4.14431      4.18688      8.28828        -0.039841     -0.013871     -0.017269
Mn	      6.18964      2.12912      8.25148        -0.131785      0.140735     -0.048579
Mn	      8.26298      6.30703     10.37136        -0.024624      0.038036     -0.004358
Mn	      2.12337      4.12686      6.18099         0.116597     -0.049241      0.047027
Cr	      6.13824      6.19127      8.27103         0.136925     -0.084215      0.011684
Cu	      6.26284      4.12570      2.20485         0.065507     -0.068152     -0.085966
Ni	      6.15950      0.03786      6.19173         0.133926      0.009192     -0.172418
Ni	      4.11110      2.09541      2.09598        -0.016139     -0.014556     -0.001840
Ni	      8.24957      4.16768      8.23809        -0.070421      0.103165      0.120974
Ni	      6.19998      6.18750      4.18673        -0.039109      0.127209      0.139859
O	      6.19673      4.19135      4.10908        -0.008726     -0.123266      0.077989
O	      1.95164      2.15733      2.11688         0.025253     -0.157126     -0.105486
O	      4.17428      4.27724      2.06893         0.206513      0.019628      0.172013
O	      4.06178      2.10408      3.99051         0.146776      0.019673      0.304510
O	      6.16534      1.98571      6.36245         0.063757      0.166932      0.001384
O	      8.41906      4.19359      6.24020        -0.278164      0.007013     -0.076611
O	      2.04727      4.21940      4.25496        -0.009798      0.097811     -0.031172
O	      4.05386      6.25822      4.01046        -0.040245      0.013928      0.005741
O	      3.95984      4.16300      6.21490        -0.000683     -0.012746     -0.046699
O	      6.17415      6.36657      6.24246        -0.051657     -0.000106      0.049599
O	      6.21530      4.12573      8.16824        -0.046680     -0.024823      0.030509
O	      8.28358      6.20248      8.44221         0.005286      0.040329     -0.084783
O	      2.00284      6.11661      6.15690         0.171365      0.012292     -0.045077
O	      4.23256      8.44797      6.32755         0.010723     -0.119223     -0.208874
O	      4.18774      6.29473      8.27843        -0.278833     -0.125076     -0.014702
O	      6.17909      8.17407      8.14148         0.120696      0.143172     -0.022503
O	      6.34041      6.23102     10.26352        -0.026856     -0.024684     -0.002401
O	      8.25741      8.13107     10.38043        -0.023082     -0.031363     -0.014249
