# total energy = -204.58300573 eV
 
CRYSTAL
PRIMVEC
0.013527 6.261786 6.185029 
6.197432 0.003258 6.195481 
4.127703 4.177630 0.006127 
PRIMCOORD
36 1
Li	      0.08692      6.21125      6.18054         0.079158     -0.066788     -0.050015
Li	      6.18989     10.38791      8.27685         0.027953      0.047727     -0.148581
Li	      6.13726      2.15666      4.06933         0.070364      0.020111      0.005131
Li	      4.14679      6.20250      2.17152         0.027410     -0.012447      0.018147
Li	      6.14853      6.21262      4.15058         0.027984      0.079456     -0.010500
Li	      4.20376      4.27035      4.07404        -0.038638      0.019304      0.068008
Li	      2.13169      6.22538      4.17481        -0.033573     -0.022197      0.098642
Li	      2.06242      4.27854      6.23647        -0.050128      0.152992     -0.066550
Li	      4.05222      6.30129      6.14374        -0.089250      0.057199      0.033787
Mn	      2.11368      4.16071      2.08731         0.017701     -0.190330      0.336303
Mn	      4.16752      2.06449      6.16559         0.012207      0.173208     -0.145834
Mn	      4.15792      8.28821      4.14287         0.113819      0.025180      0.136063
Cr	      2.04071      8.26201      6.16512         0.028277     -0.068527      0.036082
Cu	      6.14491      4.17873      6.10258        -0.019187      0.018257     -0.089605
Cu	      8.18139      8.38661      8.28221        -0.087018      0.147308      0.023449
Ni	      4.15689      2.11771      2.08517         0.113320      0.007267     -0.016243
Ni	      4.15357      6.29363     10.26857         0.088685     -0.025724      0.091513
Ni	      6.20147      6.29595      8.26189         0.026315     -0.073534      0.075713
O	      4.11390      3.97936      6.32698         0.023162     -0.141477     -0.232330
O	      6.21652      8.30373      8.25008        -0.225266      0.220550     -0.007049
O	      2.10214      2.23517      1.93870        -0.068371      0.011626      0.073700
O	      3.97594      4.12537      2.11278         0.056766      0.063746     -0.037610
O	      4.16064      2.05935      4.26866        -0.015742      0.093804      0.051348
O	      6.32534      4.19539      4.13614        -0.294894     -0.006616      0.187632
O	      6.17207      2.22904      6.16761        -0.156346      0.064947     -0.005727
O	      8.30150      4.22444      6.28187         0.003928      0.070414      0.103413
O	      1.94982      4.18641      4.00323        -0.014570     -0.029363     -0.109774
O	      4.14355      6.41908      4.14431        -0.025171      0.002125      0.000859
O	      6.36817      6.11107      6.23584        -0.006740     -0.071224     -0.200445
O	      6.24808      4.20112      8.35976         0.243734     -0.100864     -0.163148
O	      8.27728      6.09182      8.14603         0.137712      0.147480     -0.120005
O	      2.00939      6.41460      6.21100         0.018623     -0.216308      0.000059
O	      4.03380      8.35020      6.07611         0.084623      0.013225      0.008397
O	      4.18682      6.38379      8.26646        -0.234557     -0.302278     -0.193591
O	      6.14199      6.11090     10.28784         0.120603     -0.084311      0.112655
O	      8.37651      8.39359     10.30850         0.037110     -0.023938      0.136107
