# total energy = -205.03567978 eV
 
CRYSTAL
PRIMVEC
-0.023678 6.249051 6.170983 
6.240034 -0.006408 6.153970 
4.150340 4.144952 0.005281 
PRIMCOORD
36 1
Li	      8.26535      8.29738     12.29213        -0.003254     -0.002604     -0.029762
Li	      2.12976      6.25101      8.22913         0.006638      0.062707     -0.002882
Li	      4.08392      6.25345     10.19989         0.002921     -0.041179     -0.014791
Li	      8.29906      4.16010      8.22679         0.001070     -0.049753      0.020209
Li	      4.20834      4.20300      4.21307         0.061415      0.071542      0.017790
Li	      2.14707      4.19968      6.19477         0.015844     -0.021490     -0.027472
Li	      4.13102      6.06380      6.25757        -0.008633     -0.005360      0.023513
Li	      4.14099      4.15256      8.15206         0.025631     -0.051183      0.050293
Li	      6.12895      6.29781      8.18556        -0.031468      0.003114     -0.034328
Mn	     10.36298      4.12104      6.15390         0.009691     -0.078314     -0.002844
Mn	      4.15222      8.28744      8.25111        -0.151644     -0.083750     -0.283200
Mn	     10.32414      8.23886     10.23525        -0.211324      0.000886      0.186873
Cr	      4.16204      2.10429      6.15367        -0.094665      0.018510      0.069814
Cu	      6.28766      8.42049     10.17372         0.153984      0.151325      0.062172
Cu	      4.18483      6.18333      2.10234         0.011725     -0.017919     -0.068090
Cu	      6.23200      6.20819      4.15986        -0.078011      0.310306      0.023214
Cu	      8.25675      6.21495     10.25006        -0.029862     -0.283282     -0.006674
Ni	      6.24327      4.15093      6.19284         0.079758      0.069900      0.027317
O	      8.41280      6.17841      8.19245        -0.011793     -0.030022     -0.007507
O	      1.85133      6.25187      6.07166        -0.092291     -0.045518      0.111299
O	      6.07571      8.33429      8.25467         0.034267      0.041139      0.052461
O	      8.32646      8.24239     10.21636        -0.143377      0.340274     -0.041370
O	      2.13959      2.07270      2.25778         0.022750      0.082141     -0.235919
O	      4.17851      4.15621      1.90484        -0.031235     -0.001047     -0.024427
O	      4.33966      2.16230      4.02275        -0.058433     -0.042971      0.097762
O	      6.25149      4.30136      4.19070         0.054114     -0.165437     -0.145139
O	      6.20850      1.99090      5.98561         0.049674     -0.019826     -0.009712
O	      8.39410      4.22465      6.12497         0.141993      0.047968      0.003073
O	      1.86620      4.07343      4.15389         0.111804     -0.231341      0.068723
O	      3.96370      6.34564      4.27944         0.272123     -0.111541     -0.142761
O	      4.21969      4.06233      6.19249        -0.106885     -0.020177     -0.003508
O	      6.33990      6.18676      6.05477         0.022714      0.162670      0.287610
O	      6.23618      4.04065      8.27028         0.017522     -0.104785     -0.041738
O	      4.03486      8.47702      6.27739         0.011835     -0.010952     -0.038691
O	      4.13682      6.45030      8.18109         0.028324      0.084892      0.039980
O	      6.24219      6.02997     10.33662        -0.082920     -0.028920      0.018711
