# total energy = -204.84019754 eV
 
CRYSTAL
PRIMVEC
0.067007 6.201752 6.184680 
6.314412 0.044235 6.206839 
4.239958 4.179333 -0.000574 
PRIMCOORD
36 1
Li	      4.39247     10.34937      6.25271         0.008338     -0.034966     -0.022257
Li	      6.25382      4.15625      2.02099        -0.032931     -0.003869      0.059592
Li	      6.47591      8.27867     10.31100         0.064853      0.011994     -0.011961
Li	      4.21545      6.16295      2.08153         0.031852     -0.017285      0.050444
Li	      4.23299      4.17754      4.10121         0.063043      0.071732      0.026157
Li	      4.26275      8.32425      4.16013        -0.016995     -0.017641      0.058419
Li	      2.19411      6.26089      4.15667         0.012268     -0.011337     -0.005799
Li	      4.15901      6.24972      6.15669         0.007676      0.007298     -0.064906
Li	      8.49135      8.32251      8.29414         0.020433      0.004397      0.015259
Mn	      2.21711      8.22315      6.16167         0.116308     -0.114981     -0.153294
Mn	      6.33986      4.17228      6.18387        -0.206044      0.004052     -0.192203
Mn	      6.34944      6.27367      8.25183         0.051363      0.088791      0.300902
Cr	      6.24219      6.32524      4.15616        -0.527561     -0.344393     -0.099988
Cu	      4.21758      2.14166      2.06852         0.035661     -0.079357      0.038621
Cu	      4.30698      6.20992     10.28845         0.054825     -0.352603     -0.120716
Cu	      2.19569      4.20684      2.10211        -0.081242     -0.001192      0.060489
Cu	      4.30116      2.10090      6.17871        -0.004938      0.016995     -0.071263
Cu	      2.16814      4.27745      6.21533        -0.008217     -0.094816     -0.059959
O	      8.30873      6.23573      8.21008        -0.071388      0.151266     -0.108059
O	      2.16261      6.25478      6.17572        -0.042132      0.078988      0.083595
O	      4.11847      8.31826      6.26182         0.012102     -0.011192     -0.265718
O	      4.41460      6.27763      8.29671         0.088329     -0.067392      0.018460
O	      6.30802      8.21545      8.17659         0.186763     -0.053609      0.070780
O	      2.20319      2.16616      2.12516        -0.199938     -0.015271     -0.011540
O	      4.15509      4.10742      2.09529        -0.084333      0.124949      0.007671
O	      4.08351      2.01108      4.13947         0.145631      0.302518      0.263271
O	      6.42601      4.31300      4.22361        -0.321484      0.024908      0.160095
O	      6.52669      2.26386      6.23469         0.075961     -0.041042     -0.029848
O	      8.36050      4.29306      6.09363         0.072722      0.042785      0.055557
O	      2.17106      3.98425      4.30283         0.084986      0.206958     -0.116804
O	      4.44216      6.22613      4.05648         0.169905      0.071297      0.045514
O	      4.45351      4.02824      6.19615        -0.050309      0.031392      0.023939
O	      6.20405      6.11451      6.20308        -0.019690     -0.000398      0.060341
O	      6.44186      4.32109      8.12967         0.054897     -0.012955      0.032090
O	      6.33075      6.25277     10.11974         0.375381      0.032512     -0.286981
O	      8.54169      8.39714     10.41789        -0.066097      0.001470      0.190099
