# total energy = -204.96183887 eV
 
CRYSTAL
PRIMVEC
0.022262 6.221021 6.238338 
6.075606 0.034511 6.225664 
4.079025 4.167459 -0.005396 
PRIMCOORD
36 1
Li	      2.07788      8.30950      6.24699         0.014137      0.009603      0.031092
Li	      2.04068      6.24614      8.24079        -0.002325     -0.005288     -0.002385
Li	      4.09958      8.26750      8.30216         0.011928     -0.101624      0.027849
Li	      8.14360      4.19935      4.20494         0.007026     -0.009677      0.026277
Li	      8.15737      4.19413      8.20682         0.010192     -0.012759      0.006262
Li	      8.11397      6.19647      6.24826        -0.021104      0.006206      0.027893
Li	      8.08289      6.29369     10.45479        -0.007550      0.036248      0.013452
Li	      2.02759      4.20509      6.24751        -0.005203     -0.027981     -0.007482
Li	      6.13111      6.28439      8.27875         0.052322     -0.010200     -0.000360
Mn	      6.08765      2.08747      8.25678        -0.040593      0.050163     -0.008397
Mn	      2.08607      2.05442      4.14744         0.039261     -0.028145      0.016064
Mn	      6.07323      4.25040     10.41206         0.019050      0.010069     -0.059726
Cr	      8.05418      8.39694      8.28714        -0.073841      0.045111     -0.100048
Ni	      4.07922      4.14159      0.02364         0.003543     -0.020535      0.059868
Ni	      6.08192      2.08449      4.18207        -0.024668     -0.009183      0.064654
Ni	      4.02112      4.15637      4.17779        -0.067931      0.050928     -0.025146
Ni	      6.18089      4.20112      6.22288         0.023158     -0.028254      0.105349
Ni	      4.01025      6.25666      6.27072        -0.024883      0.069838     -0.074878
O	      1.94449      2.06473      2.22348        -0.001499     -0.006940     -0.017316
O	      4.04961      4.34775      2.09297         0.023594      0.027236     -0.034150
O	      3.98700      2.14802      4.09667        -0.098832     -0.167697      0.033343
O	      6.05482      4.24152      4.19185         0.115403      0.131927     -0.128616
O	      6.11842      2.12304      6.32572         0.008081     -0.019727      0.047511
O	      8.17454      4.18614      6.25239        -0.000836      0.008144     -0.037693
O	      1.95319      4.00472      4.14519        -0.104944     -0.027988     -0.019393
O	      4.15583      6.31125      4.05411         0.012751      0.082624     -0.061700
O	      4.10308      4.23795      6.27423        -0.126973     -0.125448      0.104307
O	      6.05826      6.20846      6.06784         0.104473      0.132087     -0.091008
O	      6.03510      4.09159      8.38860        -0.004057     -0.021040      0.080250
O	      8.27315      6.42167      8.29928         0.051013      0.016290     -0.015292
O	      2.01253      6.22252      6.22920        -0.015764     -0.018313      0.016712
O	      4.06497      8.29531      6.06498        -0.004224      0.006574     -0.001381
O	      4.12917      6.07191      8.25779        -0.004675     -0.027596      0.169823
O	      6.22837      8.25971      8.41295         0.036325      0.048421     -0.143087
O	      6.12606      6.14298     10.43001        -0.017828     -0.074746     -0.054665
O	      8.20238      8.35965     10.26447         0.115473      0.011672      0.052016
