# total energy = -190.53910591 eV
 
CRYSTAL
PRIMVEC
0.036792 6.049145 6.197938 
6.251490 0.005933 6.227739 
4.185899 4.069962 -0.013643 
PRIMCOORD
36 1
Li	      1.97899      2.01318      0.08820        -0.094701     -0.013788     -0.011218
Li	      6.32167     10.10016      8.26258        -0.024464      0.013520     -0.014237
Li	      6.20233      2.05315      4.25349         0.161311     -0.032366      0.142804
Li	      6.19962      2.07723      8.21123         0.081237     -0.025427     -0.152998
Li	      4.28404      2.05449      6.31281         0.118886      0.041135      0.072852
Li	      6.29611      3.98489      6.31856         0.011719     -0.208952      0.039390
Li	      6.29838      4.01702     10.22463        -0.130869      0.088263     -0.061813
Li	      4.24846      3.93917      8.18304        -0.013130     -0.001775      0.032854
Li	      6.35415      6.03809      8.24754         0.016002     -0.013555      0.047490
V	      8.42956      9.98401     10.39603         0.653061     -0.491104      0.263288
Fe	      4.20948      6.09002      6.23084        -0.264208      0.073993      0.397971
Co	      2.12036      2.04829      4.15995        -0.461499      0.233603      0.116365
Cu	      4.24837      4.02897      4.18491         0.108360     -0.044895     -0.044920
Ni	      0.00528      0.01096      0.00682         0.009882      0.051901      0.049955
Ni	      4.17252      2.05024      2.07730         0.721779     -0.438716     -0.360119
Ni	      8.33298      4.06907      8.31168        -0.116256      0.048103     -0.226130
Ni	      8.33073      6.11080     10.29526        -0.182529      0.211824      0.024173
Ni	      6.25825      8.11236      6.19362         0.126563      0.120959      0.225386
O	      6.48114      4.02883      8.25465        -0.249387      0.110789      0.132183
O	      2.22667      2.13030      2.24167        -0.731046     -0.113005      0.121905
O	      4.04797      3.96408      2.10120         0.074897      0.760196      0.519953
O	      4.05632      2.04190      4.15997        -0.161194      0.093580     -0.133106
O	      6.53332      4.20762      4.11098        -0.297014      0.290582     -0.057378
O	      6.29804      1.90808      6.24840        -0.037082      0.660384     -0.177112
O	      8.40470      4.03938      6.02985        -0.278496      0.010462     -0.286505
O	      2.00157      3.99235      4.27124         0.108836     -0.561389     -0.414366
O	      4.31434      5.98019      4.19268         0.441892      0.093979     -0.285477
O	      4.18750      4.13202      6.19779         0.103872     -0.253557     -0.304706
O	      6.19974      6.18240      6.07859         0.250638     -0.272391     -0.153088
O	      8.35226      5.95888      8.35141         0.025911      0.169921      0.035712
O	      2.11747      5.99978      6.11056         0.246781      0.095113     -0.097759
O	      4.15230      8.09812      6.19712        -0.182018     -0.312011      0.249926
O	      4.22334      6.17547      8.30576        -0.224654     -0.491557      0.171829
O	      6.11954      8.12976      8.08836         0.394476      0.130702      0.389492
O	      6.10926      6.12345     10.35863        -0.211548     -0.043151     -0.314975
O	      8.35432      8.22784     10.20954         0.003992      0.018632      0.062381
