# total energy = -192.92301572 eV
 
CRYSTAL
PRIMVEC
-0.005774 6.076893 6.686657 
6.040210 0.033935 6.648122 
4.053695 4.051277 -0.002559 
PRIMCOORD
36 1
Li	      8.02991      8.15253     13.16350        -0.036379     -0.041626     -0.028494
Li	      8.08687     10.10843     11.14734        -0.066469      0.029345      0.006816
Li	      6.12804      8.02143     10.88177        -0.047745      0.049398     -0.045916
Li	      8.05256      4.04231      8.74691        -0.090999     -0.033063     -0.023683
Li	      2.01836      2.06538      4.48087        -0.035565     -0.001339     -0.022001
Li	      6.14963      4.15647      6.82566        -0.063558     -0.027828      0.147070
Li	      4.06885      6.13813      6.86557         0.001056      0.003649      0.084747
Li	      8.11336      8.12142      9.02478         0.129478      0.005385     -0.022854
Li	      5.99372      6.09282      8.86140         0.058185     -0.180601     -0.032930
V	      4.19674      3.98962      4.64071         0.083003      0.173862     -0.373704
Fe	      5.99560      8.10253      6.70360         0.091219      0.033178      0.128446
Co	     10.07161      6.08526      8.86863         0.378718     -0.415819      0.017793
Cu	      6.00759      0.04701      6.60167         0.014254      0.145717      0.170213
Cu	      3.96878      2.02270      2.20588        -0.099490      0.186176      0.095474
Cu	      8.03804      6.12557     11.00748         0.148127     -0.077374     -0.225517
Ni	      1.99539      6.09521      8.87297        -0.256076      0.194853      0.317979
Ni	      8.06601      6.06241      6.75033         0.069632      0.121028     -0.087987
Ni	      6.01210      4.10771     10.98754         0.093657     -0.148870     -0.280246
O	      3.86981      6.17058      8.88959         0.195112     -0.134798      0.019604
O	      6.17793      6.08813     10.87286         0.034376      0.213296     -0.038684
O	      8.05396      7.96939     11.03490        -0.114563      0.162020     -0.013154
O	      1.97385      1.89161      2.35548        -0.018486      0.068858      0.055513
O	      4.13428      4.06724      2.52899        -0.116240     -0.333281      0.194650
O	      4.01305      2.23977      4.56366         0.029736     -0.264579      0.168891
O	      5.93952      4.09045      4.54753         0.059388      0.041280     -0.019454
O	      6.04370      1.91053      6.95560         0.044318     -0.013674     -0.101891
O	      8.21524      4.07920      6.57236        -0.058975      0.067320     -0.013148
O	      2.11795      4.20212      4.54942         0.054666     -0.065343      0.029909
O	      3.93333      6.01375      4.22791        -0.077214     -0.072829      0.059926
O	      4.00523      4.17363      6.45545        -0.006494     -0.009857      0.093153
O	      6.05774      6.20192      6.73529        -0.014744     -0.094571     -0.069604
O	      6.10243      3.86192      8.89476        -0.122977      0.675559     -0.026452
O	      8.26789      6.05792      8.73824        -0.403098     -0.001924      0.128955
O	      1.83248      6.06190      6.82802         0.161400      0.112286     -0.184960
O	      4.04367      8.25097      6.44477        -0.130583     -0.111406     -0.055479
O	      5.95283      8.25427      8.77828         0.113327     -0.254424     -0.052982
