# total energy = -136.69318314 eV
 
CRYSTAL
PRIMVEC
2.080657 2.080649 3.965362 
-6.230763 6.230633 0.000068 
-2.080635 -2.080554 3.965336 
PRIMCOORD
24 1
Li	     -5.20430      3.12457      4.95521        -0.020863      0.020117      0.000343
Li	     -3.12445      5.20451      4.95532        -0.019745      0.021035     -0.000382
Li	     -3.10899      1.02986      4.95595         0.019696     -0.021576     -0.002320
Li	     -1.02910      3.10990      4.95524         0.021044     -0.020464      0.001662
Li	     -1.04161     -1.03806      4.95553        -0.000490     -0.000898      0.001766
Li	      1.03830      1.04198      4.95614         0.001068      0.000842     -0.001724
Mn	     -1.04926      1.04999      6.93861        -0.001442     -0.000460     -0.000833
Mn	     -3.11672      3.11701      2.97264         0.000236      0.001123      0.000284
Mn	     -5.18424      5.18437      6.93823        -0.000022      0.001987      0.002053
Ni	     -1.03035      1.03101      2.97304        -0.007890      0.008095      0.000812
Ni	     -3.11661      3.11743      6.93840        -0.000146     -0.002357     -0.001158
Ni	     -5.20288      5.20340      2.97275         0.006326     -0.008597      0.001360
O	     -3.12418      5.27030      2.97276        -0.011593      0.056053     -0.000567
O	     -5.27017      3.12470      2.97262        -0.056036      0.010248     -0.000112
O	     -0.96354      3.10993      2.97291         0.059168     -0.010976     -0.000096
O	     -3.10892      0.96410      2.97305         0.007626     -0.059066     -0.001120
O	      1.09726      1.10048      2.97330         0.124522      0.124318     -0.002541
O	     -1.10015     -1.09708      2.97314        -0.123596     -0.122251     -0.001852
O	     -5.19961      5.19957      5.03342         0.001313      0.000592      0.101779
O	     -5.19899      5.19945      0.91229        -0.002839      0.000482     -0.100129
O	     -3.11685      3.11714      4.84708         0.000319      0.000365     -0.082020
O	     -3.11679      3.11662      1.09819         0.000352      0.003215      0.086285
O	     -1.03433      1.03479      5.03389         0.002021     -0.001508      0.098274
O	     -1.03415      1.03449      0.91262         0.000974     -0.000318     -0.099764
