# total energy = -191.92167514 eV
 
CRYSTAL
PRIMVEC
-0.025125 6.389784 6.373635 
5.882977 0.028121 6.320537 
3.950864 4.254192 -0.010848 
PRIMCOORD
36 1
Li	      3.88126      4.24819      0.07474         0.041353     -0.020426     -0.072366
Li	      3.89723      2.17149      2.19317         0.000321     -0.032759      0.009228
Li	      7.82712      4.38819      4.28067         0.027802     -0.032165      0.016468
Li	      3.90867      6.33128      2.16107        -0.000299      0.019701     -0.043678
Li	      7.90061      4.40731      8.31805        -0.003022     -0.040254      0.019374
Li	      3.94880      4.15438      4.05558        -0.011849     -0.007398      0.086716
Li	      7.88399      6.22738      6.23509        -0.064593     -0.004090     -0.004044
Li	      3.94672      6.48569      6.33787         0.006301     -0.014215     -0.058864
Li	      7.88004      8.48026      8.53315        -0.084430     -0.047950      0.008684
V	      2.07551      4.28745      6.39201         0.046821     -0.055160      0.000821
Fe	      5.78621      6.29597      8.48202         0.374822      0.463205      0.011771
Co	      5.87147     10.64214      8.44734        -0.576925      0.263464     -0.036715
Cu	      5.83047      2.15617      4.25186         0.211111     -0.125517      0.123436
Cu	      1.97894      2.09500      4.12832         0.020144     -0.042021      0.149268
Cu	      5.84308      4.14304      6.41386        -0.195331      0.064524     -0.086115
Cu	      5.86698      4.32907     10.56883        -0.204512     -0.057406      0.009293
Cu	      7.90253      6.44818     10.52415         0.148551     -0.178893      0.267348
Ni	      2.00034      2.14356      0.04689         0.067643     -0.094058      0.189553
O	      7.76666      6.44015      8.55837         0.006610     -0.064964     -0.130368
O	      4.05050      8.56643      6.22885        -0.194578     -0.014569     -0.128941
O	      5.89835      6.45273     10.50795        -0.262567      0.152129      0.042179
O	      7.81142      8.39857     10.64982        -0.041408      0.242636     -0.038675
O	      1.96344      1.89366      2.14215         0.116703      0.989366     -0.091840
O	      4.06172      4.24907      2.05890         0.415775     -0.170235      0.009313
O	      3.90691      2.13472      4.23168        -0.278958      0.028506     -0.099510
O	      5.91880      4.14179      3.94048        -0.081395     -0.139745      0.805759
O	      5.86553      2.19659      6.27451         0.009182     -0.066466     -0.056664
O	      7.72318      4.19407      6.34608         0.039801      0.116546      0.038335
O	      1.96053      4.44478      4.43681         0.293796     -0.046215     -0.082239
O	      3.99467      6.52537      4.23981         0.078833     -0.064393     -0.108870
O	      3.85740      4.32589      6.31295         0.342335      0.006764      0.073042
O	      5.92938      6.64248      6.40828        -0.011558     -0.122139     -0.046861
O	      5.87489      4.35970      8.57770         0.008182     -0.125537     -0.018447
O	      1.97492      6.29621      6.48417         0.017924      0.027132     -0.567884
O	      3.87447      6.38415      8.44038        -0.263901     -0.085870     -0.011737
O	      5.87070      8.61835      8.25271         0.001315     -0.721524     -0.176771
