# total energy = -189.68285887 eV
 
CRYSTAL
PRIMVEC
0.028669 6.160411 6.157685 
6.202352 0.028863 6.157390 
4.151189 4.122972 0.003106 
PRIMCOORD
36 1
Li	      2.17702      8.20325      6.10417         0.050609     -0.067793      0.027917
Li	      4.19318      8.15670      8.15336        -0.010379     -0.006391     -0.014725
Li	      4.17929      6.17845     10.22874         0.007440      0.001298     -0.078965
Li	      6.27728      6.20422      4.21001         0.035789      0.030072     -0.074969
Li	      4.10315      2.07469      6.11025         0.063179     -0.046523      0.025558
Li	      4.16262      8.25865      4.21867         0.004250      0.021020      0.011846
Li	      8.24637      6.22176     10.32130         0.020850     -0.037385      0.011772
Li	      6.14411      8.23680      6.12049        -0.055086      0.068900     -0.025332
Li	      4.19231      6.19673      6.14229        -0.090254      0.061512      0.004203
V	      4.16291      6.18724      2.15696         0.011198     -0.338062      0.014113
Fe	      2.10533      4.07819      2.09632         0.201365     -0.050760      0.132356
Co	      2.11737      6.16040      8.16086        -0.010323     -0.091147     -0.018359
Ni	      6.24661      6.17007     12.24244         0.018260     -0.047488      0.006896
Ni	      6.23644      8.24197     10.23951         0.002046     -0.039800     -0.080145
Ni	      4.15115      4.07519      4.18469        -0.145037      0.081883     -0.150261
Ni	      6.25587      4.15246      6.12329        -0.017109      0.416367      0.050622
Ni	      4.11078      4.15660      8.18774         0.005803     -0.031616      0.011389
Ni	      6.17078      6.23557      8.19024        -0.000294      0.096865      0.145062
O	      4.16508      8.36573      6.13034        -0.056578     -0.037434     -0.041637
O	      1.95625      2.00991      2.10105         0.108673     -0.040464     -0.046520
O	      4.21273      4.20810      2.04009         0.066232     -0.044359      0.017741
O	      4.31578      2.13289      4.10059        -0.146455     -0.089318      0.081407
O	      6.17357      4.02192      4.01999         0.062697      0.201722      0.344692
O	      6.23442      2.08660      6.30699         0.016347     -0.054620     -0.102489
O	      8.27619      4.12429      6.32957        -0.049103     -0.079128     -0.405343
O	      2.15925      4.08386      3.96381         0.013850     -0.044028      0.462574
O	      4.13382      6.12440      3.95494         0.051549      0.049396      0.360771
O	      4.30850      4.13017      6.20865         0.003994     -0.120389      0.001509
O	      6.23245      6.08413      6.22495         0.069680     -0.199508     -0.258524
O	      6.26094      4.05832      8.24153        -0.126833      0.233971     -0.198389
O	      8.39304      6.14693      8.22023        -0.094558      0.172488     -0.070639
O	      2.00955      6.16750      6.30247         0.062042      0.053156     -0.069853
O	      4.02323      6.14224      8.17623        -0.005621      0.103345     -0.056207
O	      6.27036      8.34751      8.17857        -0.132478     -0.007274     -0.118680
O	      6.19319      6.33664     10.22077        -0.018546     -0.130739     -0.017664
O	      8.13693      8.25122     10.12932         0.082803      0.012230      0.118272
