# total energy = -194.53843441 eV
 
CRYSTAL
PRIMVEC
0.017940 6.218115 6.149334 
6.234147 0.030383 6.136702 
4.162045 4.143051 0.014461 
PRIMCOORD
36 1
Li	      4.18356      2.12804      2.09306         0.016490     -0.077032      0.086293
Li	      6.12377      2.17410      4.08036        -0.008747     -0.048630     -0.013666
Li	     10.31819      6.14324      8.17973         0.025304      0.024894      0.063848
Li	      8.42606      4.28015      8.18972        -0.051765      0.010540      0.063971
Li	      4.22576      4.08086      4.07741        -0.025743      0.039693      0.025083
Li	      6.21143      4.13658      6.12009         0.001253     -0.044414      0.032529
Li	      8.34893      6.24793     10.13145         0.033245      0.015477     -0.062953
Li	      8.23291      8.22633      8.14717         0.038023      0.037610      0.073909
Li	      6.36338      6.31739      8.16961         0.023233      0.000884      0.051335
V	      6.26671      4.20990     10.06741        -0.019746     -0.164238      0.424321
Fe	      8.17713      2.15923      6.22993         0.215191      0.148111     -0.358414
Co	      6.25475      8.31532      6.19467        -0.280337      0.197793     -0.250878
Co	      4.18767      6.18346      6.21094        -0.041262      0.370066     -0.569793
Cu	      6.21189      4.12087      2.09453         0.133409     -0.049995     -0.102254
Ni	      4.14886      4.13941      0.06881        -0.015609     -0.075149     -0.119333
Ni	      4.16111      6.25309     10.20743         0.204023     -0.018566     -0.021149
Ni	      2.11307      2.06850      4.07277        -0.153519      0.197275      0.011781
Ni	      8.34222      6.24562      6.18387         0.059968      0.156007      0.427347
O	      8.33729      6.24890      8.03829         0.027553     -0.045576      0.436942
O	      2.09721      1.98395      2.00653        -0.035262     -0.164105      0.002193
O	      4.28979      4.13327      2.06552         0.199850      0.022901      0.185947
O	      4.12923      2.04940      4.26423         0.225840      0.018291     -0.611453
O	      6.30538      4.18403      4.03882        -0.198657     -0.167788      0.189952
O	      6.23452      2.06835      6.10250         0.019011      0.198654     -0.070734
O	      8.33855      4.14129      6.15442        -0.171595     -0.290439      0.088133
O	      1.92908      4.15840      4.19648        -0.014123      0.046994      0.183685
O	      4.20515      6.37174      4.29699        -0.080564      0.121628     -0.398033
O	      4.00773      4.21429      6.09568         0.170355      0.213199      0.087077
O	      6.27506      6.40312      6.15185        -0.124194     -0.146531      0.211639
O	      6.26339      4.12866      8.36409         0.006205     -0.001676     -0.415483
O	      2.09030      6.15485      6.17702         0.172736      0.021092     -0.027381
O	      4.25713      8.24963      6.12221         0.003107     -0.335560      0.021296
O	      4.05900      6.20901      8.07761        -0.359241     -0.100777      0.671297
O	      6.24526      8.38619      8.09637        -0.048615      0.070977     -0.174464
O	      6.23698      6.06763     10.26628         0.071896     -0.058564     -0.162277
O	      8.53139      8.30429     10.37155        -0.017710     -0.123045      0.019688
