# total energy = -194.87499337 eV
 
CRYSTAL
PRIMVEC
0.005317 6.203581 6.107741 
6.307821 -0.023752 6.136515 
4.190295 4.139260 -0.000440 
PRIMCOORD
36 1
Li	     10.44154      4.13653      6.19201        -0.028509     -0.000416     -0.033705
Li	      6.19557      4.19881      2.13743         0.001408      0.051275     -0.018437
Li	      4.25824      6.15690     10.20160         0.000336     -0.024118      0.016228
Li	      4.21452      6.08603      2.06959         0.071854     -0.018169      0.006294
Li	      2.19700      4.13239      2.09172        -0.022781     -0.056563      0.025881
Li	      2.10553      2.15987      3.98845        -0.055411      0.008264     -0.071919
Li	      0.20235      4.21037      3.98210         0.044784     -0.044231      0.019932
Li	      8.32085      6.06472     10.11282         0.008513     -0.013702      0.078187
Li	      2.11450      4.06824      6.00196        -0.068202     -0.007440     -0.040022
V	      3.97163      6.28796      6.06782        -0.291315     -0.047915     -0.020956
Fe	      6.35997      4.12280      6.13620        -0.203119      0.127072      0.069263
Co	      8.39639      2.10092      6.12835        -0.009734      0.186620      0.006640
Co	      8.36990      6.18285      6.16430         0.729970      0.077163     -0.037442
Cu	      6.28864      2.01895      4.11811         0.180144      0.077328     -0.026839
Cu	      4.14194      4.10699      4.02628         0.006705      0.299342      0.074273
Ni	      4.18216      2.09150      2.07263        -0.067002     -0.117890     -0.154588
Ni	      8.39417      8.24018      8.24242         0.082028      0.307735      0.069521
Ni	      6.34525      6.18096      8.20219        -0.191284     -0.085904     -0.016079
O	      6.28638      6.23087     10.09224        -0.045200     -0.071060      0.108829
O	      2.14574      2.07797      1.83270        -0.130830      0.060157      0.084668
O	      4.24592      4.07358      2.08165        -0.010867      0.124477     -0.140207
O	      4.24042      2.12489      4.20809        -0.173679     -0.142037     -0.032117
O	      6.20784      4.06655      4.15662         0.049381      0.003219     -0.079194
O	      6.18975      2.09394      6.11503        -0.051103     -0.037118      0.175686
O	      8.32598      4.21128      6.10227         0.212884     -1.134722      0.070076
O	      2.20365      4.11498      4.05858        -0.060871      0.034104      0.023792
O	      4.27209      6.12500      4.29288         0.063324     -0.032522     -0.160953
O	      4.24019      4.21165      6.14760         0.080951      0.596614     -0.002433
O	      6.43432      6.17081      6.25605        -0.488695      0.032694     -0.041889
O	      6.22381      4.27214      8.15164         0.149792     -0.161275      0.027056
O	      8.41488      6.25394      8.03013         0.034407     -0.149774      0.028530
O	      2.22379      6.19835      6.08664        -0.070261      0.134175      0.016145
O	      4.19972      8.10360      6.07691         0.268033     -0.055919     -0.007484
O	      4.21018      6.17850      7.94769         0.047252     -0.023464      0.159716
O	      6.29631      8.10087      8.25516         0.010229      0.088319     -0.078429
O	      8.28519      8.25018     10.34509        -0.073132      0.015680     -0.098023
