# total energy = -196.29753318 eV
 
CRYSTAL
PRIMVEC
0.012630 6.228123 6.319031 
6.163256 0.062799 6.268803 
4.124066 4.133544 0.026610 
PRIMCOORD
36 1
Li	      6.10344      2.18378      4.26997         0.004255     -0.070532      0.007383
Li	      4.13508      6.20200      2.16844        -0.021285     -0.008282     -0.062170
Li	      8.19201      4.23857      8.40093        -0.033571      0.066050     -0.075821
Li	      4.17759      4.20620      4.05903        -0.063811      0.010149     -0.000888
Li	      4.14218      2.09908      6.29402        -0.017824     -0.053440      0.136697
Li	      6.18213      4.08766      6.25347         0.014037      0.006860      0.069444
Li	      8.32327      6.32933     10.38798         0.000102      0.018027     -0.016464
Li	      4.14777      6.29634      6.21719         0.022037     -0.012976      0.041793
Li	      8.29605      8.28079      8.52693         0.017338      0.001946     -0.008956
V	      2.29838      4.13980      6.27298        -0.085996      0.013155      0.093716
Fe	     10.24349      4.26337      6.36809        -0.101120     -0.048253     -0.139179
Co	     10.27489      8.34638     10.51338         0.080187      0.052860     -0.026382
Co	      6.22342      6.23179      8.45712         0.064984     -0.042073     -0.073277
Cu	      8.19603      2.15168      6.27140        -0.038906     -0.204123     -0.075329
Cu	      8.20543      4.17827      4.20312         0.178583     -0.121060      0.128104
Cu	      6.14583      6.18214      4.18909        -0.033788      0.152157     -0.046013
Ni	      6.17997      4.16272      2.14006         0.039732     -0.197508     -0.093953
Ni	      4.07303      2.08927      2.12124         0.132531      0.033433     -0.071001
O	      8.03546      6.27078      8.43962        -0.027515      0.011718      0.051808
O	      8.37473      8.38444     10.57395        -0.067317     -0.073457     -0.032054
O	      2.07815      2.03802      1.95800        -0.226806      0.111530      0.157532
O	      4.12712      4.10876      2.04572        -0.085743      0.127856      0.148704
O	      3.99822      2.03478      4.17420        -0.101695      0.132725      0.035300
O	      6.22528      4.19761      4.15110        -0.190729      0.092083      0.106546
O	      6.21894      2.05705      6.24833        -0.128979      0.066619     -0.033360
O	      8.24010      4.13781      6.21998         0.068657      0.459475      0.020268
O	      1.95604      4.08853      4.44648         0.024935     -0.065948     -0.154330
O	      4.19934      6.36510      4.20559         0.057635     -0.038192     -0.008227
O	      4.00719      4.19161      6.24125         0.160588      0.022267     -0.006562
O	      6.16832      6.41638      6.53621        -0.032936     -0.124613     -0.029175
O	      6.17403      4.37837      8.57317         0.021719     -0.001207      0.039017
O	      2.03217      6.03941      6.35917        -0.016108     -0.159481     -0.028779
O	      4.08858      8.35759      6.22248         0.219876     -0.084972     -0.046303
O	      4.23766      6.27677      8.49555         0.048189     -0.084181     -0.078504
O	      6.16029      8.23080      8.25325         0.044075      0.007894      0.055609
O	      6.13635      6.17250     10.44851         0.074668      0.003495      0.014806
