# total energy = -194.29343840 eV
 
CRYSTAL
PRIMVEC
0.073994 5.844515 6.366355 
6.866450 0.034484 6.415185 
4.560097 3.909521 0.035493 
PRIMCOORD
36 1
Li	      6.94186      9.61284      8.57211        -0.140502     -0.025166      0.012951
Li	      4.70004      5.86748     10.55550        -0.013843      0.126400     -0.030797
Li	      6.97541      7.78846     10.51445        -0.100718      0.026839      0.032517
Li	      4.73388      3.91294      4.45113         0.104784     -0.023745     -0.079390
Li	      4.40494      2.03235      6.22781        -0.033295     -0.094404     -0.070507
Li	      6.47466      3.91034      6.23331         0.087076     -0.069833     -0.010879
Li	      2.64969      3.90886      6.44719         0.048546      0.072647      0.055069
Li	      4.83506      5.77849      6.44107        -0.023412      0.110096     -0.004596
Li	      4.42576      3.87545      8.24025         0.049740      0.063582     -0.076366
V	      6.81122      2.17170      8.57288         0.312661     -0.613782     -0.699530
Fe	      2.30861      1.96667      0.08273        -0.037259     -0.115613      0.175998
Co	      4.57446      3.91202      0.13920         0.121610      0.107142      0.273856
Co	      6.97388      5.77157      4.30086         0.230223     -0.457318      0.153355
Cu	      4.60180      1.99779      2.21313         0.066852      0.242529     -0.131612
Cu	      2.30774      3.94161      2.18023         0.296088     -0.000668     -0.308660
Cu	      4.59124      7.83420      4.37961        -0.204517      0.220320      0.138881
Cu	      2.29332      5.82138      4.36919        -0.200245      0.165400      0.273227
Cu	      6.65485      5.89148      8.30354         0.065370     -0.276328     -0.184246
O	      4.72801      5.99036      8.54099        -0.100441     -0.268657      0.065417
O	      7.06255      7.64476      8.57190         0.114059      0.125850     -0.046390
O	      6.84143      5.85748     11.06292        -0.080930     -0.391949     -0.736448
O	      9.43006      7.76095     10.92086         0.359474     -0.021197     -0.252024
O	      2.01653      2.00993      2.16123        -0.045632      0.502261     -0.018129
O	      4.71948      3.93326      2.00930         0.094968      0.219902      0.641050
O	      4.39953      2.04621      4.06131        -0.072453     -0.025803      0.182559
O	      6.89579      4.01226      4.24146         0.004139     -0.172371     -0.068715
O	      7.07335      1.94849      6.64290        -0.022793      0.114807      0.142418
O	      9.50594      3.98504      6.65125        -0.226864      0.079406      0.390372
O	      2.03438      3.88188      4.13290        -0.264626      0.204198     -0.396943
O	      4.74048      5.88517      4.01145         0.115771      0.238125      0.369169
O	      4.57259      3.92560      6.32430         0.013030     -0.041913      0.073532
O	      6.91647      5.85638      6.17322        -0.066525      0.152895      0.349875
O	      6.77309      3.91730      8.35377        -0.076899      0.375808      0.029790
O	      9.55483      5.85528      8.72901        -0.488685     -0.274433      0.084029
O	      2.03237      5.82556      6.35551         0.065020     -0.093010     -0.177368
O	      4.44149      7.83811      6.69001         0.050229     -0.182017     -0.151468
