# total energy = -195.52892761 eV
 
CRYSTAL
PRIMVEC
0.000527 6.243336 6.113960 
6.185017 0.009408 6.105009 
4.112741 4.145680 0.016805 
PRIMCOORD
36 1
Li	      6.15928      4.09200      2.10679         0.013756     -0.035595     -0.034878
Li	      4.13425      6.27756     10.11649         0.019540     -0.003277      0.040376
Li	      6.14168      2.13528      4.01705         0.013692      0.023064     -0.005051
Li	      4.11094      6.24759      2.08444        -0.001619      0.059062      0.006318
Li	      8.18887      4.19898      8.19319        -0.008959     -0.020345      0.018693
Li	      6.04878      4.25491      6.12710        -0.049591      0.067962     -0.034074
Li	      6.19631      4.17124     10.08617         0.043627     -0.031686      0.022971
Li	      4.11347      6.22895      6.15351        -0.019468      0.035051     -0.056943
Li	      4.17291      4.24666      8.09151        -0.038831     -0.006614     -0.057916
V	      8.12328      2.25332      6.14165        -0.080221     -0.129784      0.040349
Fe	      2.13524      6.22488      4.04289        -0.074799     -0.006391      0.056514
Co	      6.18769      8.29008      6.14681         0.085097     -0.041634      0.057215
Co	      6.18762      6.22844      8.17800         0.088303      0.088795     -0.341068
Ni	      4.16278     10.35358      6.15425        -0.157578      0.035966     -0.021277
Ni	      4.16860      8.26621      8.20012        -0.028241      0.073520      0.115623
Ni	      6.11074      6.17730      4.05519        -0.019042      0.042553     -0.018629
Ni	      4.11845      4.14178      4.07306        -0.111978      0.002888     -0.115441
Ni	      4.14754      2.10975      6.10910        -0.039180     -0.120800      0.000392
O	      2.08620      2.01373      1.85724        -0.129369     -0.012310     -0.036295
O	      4.09736      3.94148      2.10688         0.023235      0.045342     -0.024676
O	      4.04189      2.05963      4.07098         0.106038     -0.152314     -0.094863
O	      5.99471      4.18355      4.10517         0.168875     -0.154885      0.004861
O	      6.31076      2.04720      6.15911         0.000325      0.114524      0.003981
O	      8.25236      4.03135      6.10568        -0.047484      0.025464      0.005547
O	      2.16526      4.14237      4.18323        -0.105837      0.035592     -0.052446
O	      4.07967      6.22683      4.01230         0.053686      0.087254     -0.018182
O	      3.98248      4.11487      6.01001         0.062002      0.154923      0.249554
O	      6.21438      6.37907      6.21621        -0.106883     -0.024756      0.099646
O	      6.16310      4.41794      8.11406        -0.047788      0.015158      0.034687
O	      8.13918      6.24820      8.15111        -0.076341     -0.013737      0.066766
O	      2.04497      6.15522      6.07621         0.162437      0.011308      0.062312
O	      4.13065      8.33468      6.23456         0.053821     -0.148296     -0.085423
O	      4.29270      6.36066      8.17548         0.127979     -0.191621      0.034397
O	      6.21883      8.17805      8.05684         0.132567     -0.004111      0.039957
O	      6.30830      6.25957     10.08491        -0.067710      0.032189      0.045208
O	      8.29430      8.25161     10.45505         0.055940      0.147540     -0.008205
