# total energy = -136.50051631 eV
 
CRYSTAL
PRIMVEC
2.078429 2.078528 3.957230 
-4.168209 4.168417 -0.000024 
-4.157852 -4.158070 3.958381 
PRIMCOORD
24 1
Li	     -3.13497      1.04922      4.94088        -0.002796     -0.022672     -0.007072
Li	     -5.20188      3.11348      4.94121        -0.019619     -0.000149     -0.008170
Li	     -5.20818     -1.02287      4.94857         0.023577      0.002821      0.009377
Li	     -1.03506      3.11526      4.94435         0.019026     -0.025607     -0.001951
Li	     -7.27402      1.04289      4.94849         0.003412      0.021653      0.009893
Li	      1.03168      1.04567      4.94450        -0.021403      0.022018     -0.001375
Mn	     -3.13496     -1.05274      6.92987         0.018981      0.016859      0.035815
Mn	     -3.10618     -1.02430      2.95975        -0.016224     -0.019312     -0.036871
Mn	     -3.12580      3.12513      2.96585         0.000817     -0.000860     -0.001654
Ni	     -1.04173      1.04073      2.96586         0.000570     -0.001022     -0.000188
Ni	     -5.19664      1.05384      6.93869        -0.011934     -0.011234      0.030122
Ni	     -5.21232      1.03737      2.95064         0.007876      0.012234     -0.029089
O	     -3.05506      0.97445      6.92325         0.131214     -0.129369     -0.000430
O	     -1.10741     -0.97367      6.92339        -0.132905      0.134640     -0.000218
O	     -0.97763      3.11730      2.96536         0.078751      0.027875     -0.001860
O	     -3.11770      0.97621      2.96592        -0.029481     -0.078623      0.001484
O	      1.03434      1.10511      2.96531         0.030533      0.078297     -0.000750
O	     -1.10541     -1.03591      2.96612        -0.080984     -0.028613      0.000886
O	     -3.13085      3.11928      4.85827        -0.012414     -0.012162     -0.073058
O	     -1.03969      1.04196      5.04617        -0.008856     -0.006581      0.130062
O	     -5.20421      1.04575      4.94471        -0.000913      0.000175     -0.001820
O	     -3.12002      3.13117      1.07324         0.010910      0.009300      0.075136
O	     -3.12072     -1.03898      4.94465         0.001225      0.001198      0.000375
O	     -1.04392      1.03896      0.88514         0.010636      0.009135     -0.128646
