# total energy = -198.46668418 eV
 
CRYSTAL
PRIMVEC
0.009587 6.046817 6.132511 
6.232318 -0.027827 6.169253 
4.176696 4.077758 -0.039767 
PRIMCOORD
36 1
Li	      0.11928      6.01733      6.09451        -0.056057      0.011732      0.035026
Li	      2.18937      6.04616      8.09793         0.043828      0.029096     -0.009214
Li	      4.10638      0.04756      4.02428        -0.062430      0.005967     -0.036214
Li	      0.05474      2.02813      2.06155         0.080114     -0.007183      0.064594
Li	      6.27480      5.99488      4.15369         0.011515      0.034823     -0.086394
Li	      4.09515      2.02476      6.08248        -0.064294     -0.008758     -0.032937
Li	      6.20000      8.08701      6.18669        -0.040694     -0.107351      0.025326
Li	      4.16906      6.06956      6.13806         0.064307     -0.054082     -0.015608
Li	      6.14163      6.07477      8.12535        -0.023862     -0.000138     -0.009129
V	      8.36055      4.15228      8.19422         0.004327     -0.663109      0.294130
Fe	      6.19066      8.01748     10.20111         0.143005      0.001655     -0.105581
Co	      2.10534      8.07581      6.11758        -0.134490     -0.232743      0.017652
Co	      6.24251      4.08530      6.16238         0.065105      0.164622     -0.001113
Co	      2.08899      6.06180      4.10284         0.048966     -0.037529     -0.017528
Cu	      4.18558      7.98187      8.12970        -0.025631      0.073641      0.120840
Ni	      4.16258      8.09116      4.11872         0.040016     -0.037879     -0.150069
Ni	      4.19648      4.07892      4.14833        -0.089506      0.059368     -0.030955
Ni	      4.13719      4.07262      8.17310         0.039407     -0.137132      0.091640
O	      4.14605      6.03191      8.20167         0.014446      0.025091      0.007118
O	      2.13299      2.11889      1.91595        -0.044745      0.425689      1.282327
O	      3.94567      4.04179      2.01586         0.008507      0.089774     -0.080544
O	      4.22169      2.04923      4.01321        -0.026468     -0.142429      0.134887
O	      6.23268      4.00543      4.25220         0.127902      0.017828      0.188598
O	      6.38415      2.13055      6.11082        -0.130918      0.056315     -0.043727
O	      8.20814      3.98546      6.28550        -0.126257      0.175489     -0.276612
O	      2.04986      4.08488      3.96700         0.026216      0.210938      0.059085
O	      4.01220      6.07351      4.04298        -0.114575      0.005055      0.055450
O	      4.38872      3.97969      6.19434         0.132683     -0.010905     -0.031558
O	      6.30415      5.89922      6.11691        -0.069787     -0.193770      0.017758
O	      6.37206      4.01169      8.15382         0.034827      0.027899     -0.219457
O	      8.33705      5.96585      8.24620         0.011457      0.106353      0.069272
O	      2.08263      6.17306      5.99355         0.042364     -0.010510     -0.110722
O	      4.04205      8.10123      6.14058         0.174984      0.038925     -0.024713
O	      6.25093      8.11964      8.19224         0.019667      0.032442     -0.025844
O	      6.36535      6.03549     10.26835         0.032191      0.055116      0.022824
O	      8.32766      7.95921     10.27842        -0.156121     -0.004297     -1.178608
