# total energy = -197.18271030 eV
 
CRYSTAL
PRIMVEC
-0.019695 6.180012 6.154146 
6.189588 -0.016421 6.150997 
4.148362 4.139819 -0.032982 
PRIMCOORD
36 1
Li	      8.15349      2.15559      6.03551        -0.083393     -0.023342     -0.036949
Li	      8.35343      4.14846      4.18146         0.033841     -0.061316     -0.077579
Li	      6.19314      1.96689      4.20537         0.082411      0.034461     -0.064362
Li	     10.27176      6.15000      8.07941        -0.091949      0.185696     -0.046773
Li	      4.16936      2.00771      6.08238         0.049269      0.053511      0.062433
Li	      6.21780      3.95225      6.15967        -0.066928     -0.084886      0.174734
Li	     10.25673      8.30607     10.28463        -0.112694      0.022893     -0.127146
Li	      4.16798      6.16694      6.10249         0.004439     -0.026926      0.064987
Li	      6.20241      6.19409      8.14331        -0.023919     -0.185762      0.016993
V	      2.12188      6.28446      8.16866        -0.078342     -0.250230     -0.117170
Fe	      6.14207      6.23719      4.20017        -0.092184     -0.047754     -0.054031
Co	      2.06329      6.21051      4.11872        -0.001880      0.119685     -0.006383
Co	      2.07477      4.14230      6.17693         0.170706     -0.007665      0.236545
Co	      8.37818      8.15305      8.21199        -0.914521      0.360046     -0.064249
Cu	      8.13030      4.20491      8.11423        -0.262965     -0.056123     -0.010598
Cu	      4.12224      4.11029      4.13502         0.070703      0.066675      0.091913
Ni	      6.16009      0.02235      6.09493         0.040655     -0.023580     -0.034942
Ni	      4.16820      8.25103      8.15755         0.151160     -0.084654      0.003814
O	      5.98990      4.12209      8.17209         0.681302     -0.153176      0.001530
O	      2.08927      1.94278      2.02934        -0.017545      0.081114      0.034687
O	      4.37825      4.09166      1.85777         0.019844      0.109262      0.138435
O	      3.99211      2.15835      4.00352         0.086701     -0.048937      0.125362
O	      6.14284      4.16958      3.87158         0.010148      0.101378      0.020141
O	      6.17374      1.90500      6.12634         0.011340      0.148619      0.005007
O	      8.25416      4.11745      6.22434        -0.088297     -0.014365      0.045679
O	      2.09295      4.17104      4.12479        -0.018780      0.103144     -0.093597
O	      4.10854      6.08026      4.07518        -0.073624     -0.091353      0.030489
O	      4.00768      4.06759      6.31832        -0.057028     -0.069117      0.089362
O	      6.14918      6.36216      6.09582         0.032126      0.051047      0.023566
O	      8.22078      6.16153      8.38130        -0.074814      0.268182      0.012783
O	      2.12565      6.11671      6.17541         0.088968     -0.016233      0.049801
O	      4.30159      8.39996      6.15370         0.040266     -0.161623     -0.082849
O	      3.95137      6.16771      8.22820         0.245264     -0.314523      0.051266
O	      6.28470      8.36109      8.07473         0.054086      0.114060     -0.087222
O	      6.32623      6.17299     10.34612         0.156742      0.021780     -0.172646
O	      8.26558      8.08639     10.11933         0.028892     -0.119987     -0.203033
