# total energy = -198.32540073 eV
 
CRYSTAL
PRIMVEC
0.019914 6.209124 6.352661 
6.137526 0.045598 6.327633 
4.098819 4.129876 0.023367 
PRIMCOORD
36 1
Li	      6.15057      6.23631     12.58914        -0.108528      0.102855      0.080016
Li	      8.13281      8.39160     12.49749        -0.134662      0.088710      0.066720
Li	      8.30685     10.30535     10.63019        -0.111214      0.163820      0.140297
Li	      6.25018      8.20732     10.60909        -0.210383      0.183577      0.144567
Li	      6.10705      2.10774      8.38702        -0.043032      0.070170     -0.205475
Li	      4.06081      4.12794      4.22858         0.071546     -0.053328      0.048299
Li	      8.08434      6.31259     10.51099         0.100867     -0.138904     -0.084105
Li	      6.17290      8.25401      6.40532         0.039189     -0.117195      0.060182
Li	      6.16500      6.29908      8.62254         0.039079     -0.105303     -0.151396
V	      3.94194      6.28738      6.24217         0.483635     -0.251381      0.499543
Fe	      6.06975      4.12962      2.27458        -0.007792      0.154946     -0.224692
Co	      8.19756      4.17247      8.44400        -0.275897      0.201358     -0.361729
Co	      8.22494      6.20008      6.36521         0.276656     -0.148388      0.326491
Co	      6.15023      4.14766      6.39698         0.273280      0.494745     -0.067451
Cu	      4.15619      8.29308      8.50887         0.047093     -0.017278     -0.044043
Cu	      2.10083      2.08388      4.23205         0.013492     -0.187641      0.345251
Cu	      6.13957      4.28965     10.47107         0.002602     -0.077690      0.321553
Ni	      8.19326      8.29950      8.53674         0.192667     -0.217452     -0.287084
O	      6.16426      6.19999     10.61742         0.015882     -0.396656     -0.052574
O	      8.30753      8.30094     10.49531         0.341033      0.096889      0.149268
O	      2.13329      2.11730      2.23814        -0.039496     -0.204553     -0.198159
O	      4.06291      4.06809      2.09207         0.133233      0.045985      0.061216
O	      4.06019      2.14032      4.51992         0.035954      0.093742     -0.259629
O	      6.17261      4.23129      4.21618        -0.038792     -0.022259      0.609541
O	      6.05841      2.31017      6.32759        -0.075001     -0.599997      0.011395
O	      8.07738      4.15369      6.51866        -0.100426     -0.163756     -0.029572
O	      1.97878      4.07495      4.04919        -0.295617      0.368842      0.057733
O	      4.10661      6.17250      4.43500        -0.077171      0.246779     -0.437680
O	      4.19379      4.30684      6.45352         0.026028      0.222428     -0.081458
O	      6.14901      6.07901      6.29078        -0.125250      0.146050      0.061694
O	      6.25260      4.18037      8.39754        -0.016589     -0.198935     -1.016563
O	      8.21282      6.13231      8.27470         0.020209      0.117885      0.093344
O	      2.18862      6.20954      6.40223        -0.288470      0.029249      0.004757
O	      4.18937      8.05786      6.28940        -0.058016      0.076880      0.246704
O	      4.06732      6.27422      8.29375        -0.084968      0.088285      0.100074
O	      6.13420      8.38807      8.50241        -0.021142     -0.092479      0.072965
