# total energy = -197.94440660 eV
 
CRYSTAL
PRIMVEC
-0.004243 6.211160 6.134412 
6.173636 -0.019335 6.149483 
4.135138 4.171172 -0.033480 
PRIMCOORD
36 1
Li	      0.08694      6.15024      6.05457        -0.023321     -0.085630      0.004589
Li	      8.22020      8.29741     12.12502         0.026013      0.037979      0.065947
Li	      6.15203     10.29388      8.14032        -0.070378     -0.041377     -0.054229
Li	      8.22884     10.24601     10.24624         0.027678      0.026344      0.006988
Li	      6.11613      6.18036      4.05343         0.089784      0.047599     -0.032384
Li	      4.16849      4.18134      4.06522        -0.065544     -0.043544     -0.099030
Li	     10.27113      8.31414     10.20287         0.032816      0.015502     -0.029753
Li	      8.23107      6.28629     10.22758        -0.047744     -0.006950     -0.026072
Li	      8.21945      8.36002      8.25464         0.006440      0.065429      0.040505
V	      3.97994      2.03681      2.12209         0.065310      0.245662     -0.163464
Fe	      4.01045      6.20179      5.95385         0.469811      0.054238      0.247535
Co	      2.08327      4.18544      2.07101         0.315918     -0.057333      0.015229
Co	      6.20852      4.17627      6.15983         0.197788      0.147179     -0.079544
Co	      6.21136      6.26403      8.25674        -0.030898     -0.106695     -0.073179
Cu	      6.27261      8.31428     10.26918        -0.040775     -0.116616      0.069859
Cu	      4.12697      6.24105      2.10670         0.142134      0.017121     -0.109824
Cu	      4.13637      2.10405      6.11438        -0.070365      0.030404     -0.075548
Cu	      2.06774      4.16193      6.01501        -0.041009     -0.270838      0.007476
O	      2.10379      6.08390      6.10556        -0.288455      0.225845      0.034880
O	      6.15729      6.29904     10.09877         0.019592      0.049819      0.037451
O	      8.20389      8.29980     10.19722         0.141839     -0.000582     -0.009439
O	      2.12055      2.16482      1.96806        -0.277433      0.129688     -0.065154
O	      4.03816      3.93572      1.93879        -0.073408      0.041293      0.031607
O	      4.10294      2.03491      3.87574         0.072576     -0.041184      0.256671
O	      6.19569      4.06154      4.26772        -0.028103      0.096789      0.092193
O	      6.11942      2.24588      6.22793        -0.032575     -0.049379      0.195875
O	      8.13006      4.23980      6.28003         0.009524      0.032863     -0.102478
O	      2.08590      4.06447      3.86734        -0.117234      0.014568      0.215774
O	      4.16564      6.21145      4.06138         0.051545     -0.008899     -0.034540
O	      4.20305      4.17577      6.20501        -0.221821     -0.106038      0.008336
O	      6.23080      6.21513      6.26627         0.004780      0.014228     -0.014792
O	      6.34465      4.32769      8.11635        -0.117428     -0.019837      0.084299
O	      8.33726      6.02649      8.25309        -0.094749     -0.213155      0.146288
O	      4.22470      8.20779      6.20828        -0.103856      0.062462     -0.142490
O	      4.06508      6.39844      8.07432        -0.011682     -0.274818     -0.018701
O	      6.05541      8.22503      8.27558         0.083228      0.087868     -0.430882
