# total energy = -199.74182030 eV
 
CRYSTAL
PRIMVEC
0.031730 6.260290 6.194668 
6.233679 0.043967 6.182871 
4.158844 4.168877 0.025939 
PRIMCOORD
36 1
Li	      2.15830      8.23907      6.14028        -0.122922     -0.036332     -0.088325
Li	      6.31024      8.35977     10.25342         0.115912      0.000075      0.120574
Li	      8.32135      4.27018      8.23397        -0.104026     -0.015471     -0.041580
Li	      4.18388      4.20583      4.13850         0.017707      0.039814      0.125203
Li	      2.08902      6.26860      4.18589        -0.023819      0.044565      0.077785
Li	      6.17045      8.50219      6.33972         0.228788     -0.004722     -0.058107
Li	      4.04461      6.26779      6.25718        -0.072186     -0.175492      0.016640
Li	      8.35424      8.33366      8.26910         0.177958     -0.054783     -0.080290
Li	      6.27582      6.34921      8.31508        -0.038891     -0.094176      0.058452
V	      2.03667      2.21611      4.12024         0.025047     -0.152405      0.775177
Fe	      8.36833      6.33616      6.32865        -0.163324      0.307666     -0.511283
Co	      4.21848      8.36389      8.26795         0.427873     -0.165157     -0.435074
Co	     10.36167      6.26367      8.24539         0.208275      0.758851     -0.223785
Co	      6.23590      4.18054      6.19193         0.400986      0.095312     -0.629370
Co	      4.14177      8.34306      4.24771         0.002910      0.288074     -0.436046
Cu	      4.21033      6.26814     10.27262        -0.241005     -0.088508      0.406566
Ni	      0.10189      6.21677      6.19245        -0.186799      0.274231     -0.039764
Ni	      6.28803     10.36184      8.22175        -0.034587      0.007820      0.087718
O	      2.16223      2.03381      2.25173        -0.686776      0.206071     -0.125259
O	      4.17725      4.10071      2.05685        -0.180813      0.616307      0.221009
O	      3.98057      2.17201      4.06215        -0.174863      0.163803      0.079583
O	      6.24206      4.32887      4.23990         0.144768      0.302268     -0.236221
O	      6.19827      2.20804      6.09841         0.073067     -0.027942      0.971140
O	      8.22404      4.26681      6.04754         0.164861      0.161288     -0.019666
O	      1.94772      4.04574      4.18453        -0.068445     -0.344159     -0.041232
O	      4.30691      6.33648      4.15837        -0.129194      0.057008     -0.746818
O	      4.35262      4.14128      6.16932        -0.558088     -0.175795      0.097029
O	      6.32747      6.15042      6.06046        -0.150677      0.070435     -0.334280
O	      6.31406      4.10728      8.05611        -0.060113     -1.026456      0.724741
O	      8.33464      6.25665      8.21610         0.684968     -0.068723      0.376002
O	      2.07346      6.28010      6.20717         0.375673      0.034083     -0.100452
O	      4.15992      8.37875      6.31978        -0.075742     -0.380563      0.361161
O	      4.16256      6.43998      8.37767         0.084729      0.084357     -0.200367
O	      6.11047      8.37432      8.32340         0.054250     -0.156530      0.160030
O	      6.21732      6.12644     10.37777         0.076112     -0.129225     -0.435182
O	      8.57378      8.41249     10.27357        -0.191611     -0.415591      0.124292
