# total energy = -201.17656941 eV
 
CRYSTAL
PRIMVEC
0.007882 6.449330 6.100692 
5.971737 0.003522 6.104659 
4.006744 4.328097 -0.022208 
PRIMCOORD
36 1
Li	      2.05679      8.51787      6.07765         0.011732     -0.041552      0.009939
Li	      1.99038      6.43665      8.09062         0.013050      0.012255     -0.039013
Li	      1.99702      4.25224      2.04328        -0.001762      0.004697     -0.079534
Li	      5.97281      6.44382      4.01509         0.081060     -0.016988      0.028453
Li	      6.00156      4.26432      6.14200         0.035283     -0.015279      0.057074
Li	      2.04662      6.42893      4.13881        -0.049650     -0.027248      0.002681
Li	      1.97583      4.46105      6.13071        -0.005711      0.130243      0.036439
Li	      4.05320      4.37893      8.14763         0.038233     -0.002361     -0.021177
Li	      5.92505      6.42682      8.17596         0.046572     -0.047551      0.011566
V	      7.79773      6.50766      6.19659        -0.079969     -0.332777      0.021712
Fe	      6.06959      8.66518     10.14078        -0.121399     -0.118740      0.013160
Co	      0.02593      0.03377      0.01416        -0.166924     -0.089544      0.176857
Co	      3.94151      8.57675      8.06617        -0.083617     -0.039580      0.010638
Co	      3.98021      6.44914     10.14261         0.028523      0.033227      0.122711
Co	      0.15225      4.27765      4.03423         0.009879      0.113537     -0.159472
Cu	      3.95652      4.38849      3.99800        -0.003165      0.040566     -0.036903
Cu	      3.93528      6.42940      6.12214         0.143757     -0.005774      0.086136
Ni	      0.08847      2.15995      2.04091         0.018221      0.070076      0.079452
O	      1.99456      6.51748      6.08365         0.065577      0.065599     -0.108058
O	      2.14292      2.19881      2.02825         0.307596     -0.011409     -0.029015
O	      4.00198      4.43710      1.96262         0.046696     -0.273767      0.132574
O	      3.99792      1.92589      4.10322        -0.003065     -0.072964     -0.088638
O	      6.00289      4.18079      4.08850         0.038020     -0.002919     -0.033571
O	      5.90175      1.99909      6.07378        -0.050928     -0.018842     -0.188052
O	      8.06831      4.50876      5.94969        -0.119330      0.092729     -0.039366
O	      1.98279      4.35849      4.06315        -0.154673     -0.007071      0.032442
O	      4.00969      6.63032      4.13660         0.004435     -0.022528     -0.001919
O	      3.98355      3.96241      5.95911        -0.033727      0.033929     -0.020936
O	      6.02996      6.37307      6.10215        -0.007670     -0.042421     -0.045580
O	      6.00274      4.14303      8.18743        -0.004577      0.314237      0.265767
O	      7.98228      6.46111      7.94366        -0.094340      0.019322      0.085541
O	      4.01388      8.91252      6.09959         0.054816      0.121570     -0.041892
O	      3.98577      6.51640      8.13959        -0.021021      0.107399      0.066782
O	      5.81212      8.59139      8.18566        -0.082701     -0.003229     -0.084315
O	      5.92604      6.47719     10.27531         0.033055     -0.002762     -0.237724
O	      8.03237      8.83247     10.14023         0.107724      0.035919      0.015238
