# total energy = -200.51113008 eV
 
CRYSTAL
PRIMVEC
0.021141 6.091588 6.018213 
6.450569 0.027518 6.014815 
4.311341 4.069734 0.007614 
PRIMCOORD
36 1
Li	      6.43032      0.05873      6.02675        -0.001746     -0.016048      0.053872
Li	      2.18041      0.05707      2.05755         0.032025      0.040156     -0.018558
Li	      4.27854      2.04709      2.07088        -0.018078     -0.016857     -0.006165
Li	      4.41971      6.09485      9.90185        -0.021092     -0.027565     -0.034403
Li	      4.33645      6.03025      2.06237         0.064336      0.003198      0.016221
Li	      2.13039      2.03955      3.93879        -0.018806      0.108441     -0.016501
Li	      8.56440      6.12486      9.97546         0.011642     -0.060191      0.019210
Li	      8.54131      8.17617      8.11865         0.008772      0.063337      0.022930
Li	      6.42987      6.14042      8.08399        -0.036550     -0.024343     -0.032825
V	      6.45287      4.09612      6.09383         0.044357      0.055814      0.084188
Fe	      6.45304      8.17841      6.11467        -0.035542      0.023446     -0.436942
Co	      8.57420      8.13431     11.99128         0.412051      0.187721      0.357786
Co	      2.32305      4.06151      2.08886        -0.154680     -0.208033     -1.135510
Co	      4.36547      4.09642      4.01571        -0.327927      0.110721     -0.162637
Co	      4.30028      6.14701      6.06207         0.022324     -0.112834     -0.001319
Cu	      6.48560      8.06081      9.95430        -0.029624     -0.093602     -0.056975
Cu	      8.66247      6.06785      6.01447        -0.092008     -0.088101      0.097765
Cu	      6.38450      4.10840      9.93691        -0.005912     -0.281768     -0.104800
O	      6.45254      6.00019     10.04593         0.006610      0.395375     -0.038158
O	      8.44388      8.10373     10.11101         0.121430      0.025744     -0.051462
O	      2.16632      2.17452      1.87196         0.103542      0.529388      0.305800
O	      4.31336      4.07264      2.12023        -0.254421     -0.005069      0.139095
O	      4.44409      2.15824      4.10622         0.059736      0.089744      0.104357
O	      6.31203      4.12228      4.16599         0.020997     -0.199201      0.029827
O	      6.61538      2.08549      5.99267         0.097415      0.072746     -0.069577
O	      8.39763      4.01761      5.97490         0.221824      0.043986      0.194068
O	      2.45084      4.04518      4.08402         0.151715      0.051248      0.080901
O	      4.35154      6.09645      4.15454        -0.068079     -0.066244      0.042651
O	      4.33603      4.15911      5.99138         0.004383     -0.030194     -0.004543
O	      6.26749      6.10114      6.02863        -0.227534      0.028610      0.064800
O	      6.39863      4.05501      7.94358        -0.013692     -0.055848     -0.006374
O	      8.60772      5.94474      7.89383         0.112759     -0.440735      0.321921
O	      2.38050      6.16758      6.03432        -0.014686     -0.177601     -0.056437
O	      4.33579      8.07227      5.88776        -0.161149      0.070677      0.049172
O	      4.30773      6.14911      7.86287        -0.019197      0.007530      0.007328
O	      6.49541      8.14661      7.96431         0.004807     -0.003649      0.241298
