# total energy = -200.23793867 eV
 
CRYSTAL
PRIMVEC
0.000438 6.208472 6.152937 
6.163464 0.025875 6.127464 
4.125951 4.138897 0.000473 
PRIMCOORD
36 1
Li	      2.06235      2.04080      0.03834         0.071177      0.003997     -0.098660
Li	      2.10846      6.12258      8.12944         0.009210     -0.158733      0.018124
Li	      4.12582      8.23753      8.12387         0.164548     -0.096294      0.016284
Li	      6.22832      8.20503     10.21847         0.101509      0.034753     -0.205408
Li	      8.22913      4.28306      8.08783        -0.149621      0.142548      0.017010
Li	      8.26941      6.21781      6.22862        -0.058991      0.090125      0.074262
Li	      8.13431      6.33053     10.20241         0.020899      0.118061     -0.084304
Li	      4.05660      6.24703      6.24080        -0.000331     -0.016740      0.086204
Li	      6.21511      6.25050      8.21567        -0.026881      0.050299     -0.039483
V	      2.13817      2.09123      4.03739         0.023523     -0.056480     -0.171685
Fe	      4.09844      4.22067      4.06395         0.015671     -0.005910      0.185489
Co	      0.03057      6.21468      6.15926         0.069010     -0.359766     -0.017609
Co	      6.21165      4.14784      6.14767        -0.046483      0.074562      0.475448
Co	     10.26903      8.30295     10.23091        -0.158481      0.038897     -0.116423
Co	      4.10191      4.17254      8.18387         0.030011     -0.151640      0.085377
Ni	      4.15531      6.19522     10.22060        -0.145146     -0.091900     -0.249060
Ni	      6.11134      2.09964      8.11497        -0.213369      0.104748      0.277184
Ni	      6.14641      8.28350      6.24645         0.139938     -0.146794      0.203903
O	      2.02313      2.03759      2.26293        -0.017143     -0.054210     -0.099925
O	      4.07256      4.16008      2.13939        -0.017719      0.035565     -0.300400
O	      3.96926      2.15454      4.04706        -0.039940      0.013386      0.134561
O	      6.13328      4.26431      4.21916         0.009132      0.225430     -0.582039
O	      6.21191      2.21413      6.10349        -0.080454     -0.158469     -0.086748
O	      8.21101      4.17544      6.10881         0.813102      0.038340      0.060359
O	      2.00641      4.01084      4.17282         0.035261     -0.092834     -0.086393
O	      4.21396      6.24609      4.09843         0.067327      0.112720     -0.013752
O	      4.19640      4.17820      6.12582        -0.508711     -0.068215     -0.119121
O	      6.18052      6.10605      5.97090         0.041819     -0.052329      0.173872
O	      6.05244      4.15344      8.16871         0.357776     -0.050226      0.341668
O	      8.23863      6.41211      8.19082         0.255092     -0.183102     -0.040176
O	      1.88309      6.17963      6.16417        -0.406451      0.295269     -0.074591
O	      4.11212      8.28928      6.02461        -0.141080      0.262573     -0.063426
O	      4.11148      6.07074      8.22216        -0.012106      0.189898     -0.075838
O	      6.35552      8.26334      8.20400        -0.492667      0.053128      0.135292
O	      6.14965      6.06359     10.28985         0.199843     -0.043821      0.170972
O	      8.37908      8.31032     10.08474         0.090728     -0.096837      0.069035
