# total energy = -205.41048195 eV
 
CRYSTAL
PRIMVEC
0.008664 6.108055 6.184292 
6.221111 -0.002225 6.195394 
4.174382 4.105833 -0.028359 
PRIMCOORD
36 1
Li	      8.22516      2.09980      6.18609        -0.009813      0.109442     -0.088172
Li	      4.14112      2.03453      2.06677        -0.001708     -0.010684     -0.040043
Li	      6.25803      8.14436     10.31700         0.012320     -0.074765      0.052211
Li	      8.30040      4.12381      8.18714        -0.027379     -0.013844     -0.138491
Li	      4.19609      4.09017      4.04310        -0.001165     -0.000109      0.076514
Li	      6.23094      4.02147      6.25105        -0.004257      0.078541      0.008929
Li	      8.33536      6.16058     10.21171        -0.016415      0.030858      0.128162
Li	      4.23159      6.14412      6.23954         0.091749     -0.088541     -0.027275
Li	      6.20257      6.10328      8.26862        -0.020379      0.002467      0.002884
V	      2.09670      4.14254      6.21150         0.383597      0.235491      0.101103
Fe	      6.16514      4.11357     10.25546         0.065416     -0.230403      0.461649
Co	      2.11037      6.10340      8.23893         0.012545      0.001146     -0.006595
Co	      8.26035      4.12393      4.08560         0.160793     -0.196936      0.375083
Co	      0.02457      2.01452      2.06119         0.142171      0.038361      0.048364
Co	      2.09613      2.00770      4.08838        -0.427474      0.164546      0.006360
Co	      8.29401      6.10457      6.19662         0.149958      0.090422     -0.211469
Cu	     10.35570      4.14304      6.18276        -0.018669     -0.147709     -0.051454
Ni	      8.35522      8.14177      8.25323        -0.059421      0.136154      0.031469
O	      1.99877      1.93391      2.05229        -0.064968     -0.090722      1.069890
O	      4.32915      4.18300      1.96647         0.049168      0.094365      0.014875
O	      4.00756      1.97176      4.07992        -0.313054     -0.326181      1.179649
O	      6.31090      4.10083      3.94402         0.151391      1.232084     -0.084118
O	      6.08963      1.99787      6.31948        -0.443075      0.011711     -0.055170
O	      8.16716      4.23337      6.04066        -0.117406     -0.158919     -0.198069
O	      2.06295      4.10097      4.29972        -0.010037     -0.735107     -0.451712
O	      4.31341      6.18271      4.01455         0.439607     -0.126089     -0.268830
O	      4.03833      3.92772      6.18520        -0.015760      0.065473      0.023634
O	      6.28933      6.27645      6.17197         0.448572     -0.327316     -0.793574
O	      6.24319      3.98314      8.30530         0.089665     -0.083618     -0.142527
O	      8.48176      6.11369      8.23821        -0.153895     -0.108362     -0.911958
O	      2.27737      5.97573      6.26727        -0.089231     -0.058187     -0.007047
O	      4.37226      8.19522      6.14325        -0.007814      0.037292     -0.041132
O	      4.05026      6.06606      8.36519        -0.039832      0.129053     -0.071923
O	      6.27632      8.23572      8.08926        -0.179538      0.012253      0.131326
O	      6.07615      6.09736     10.37019        -0.073482      0.224329     -0.119626
O	      8.35721      8.25184     10.34695        -0.102181      0.083507     -0.002920
