# total energy = -136.16677709 eV
 
CRYSTAL
PRIMVEC
-4.170791 0.005091 3.944609 
0.005125 -4.170175 3.944694 
6.256799 2.080522 3.947886 
PRIMCOORD
24 1
Li	     -1.05270     -1.02514      4.93063        -0.001079      0.008149     -0.019310
Li	      1.06555     -3.14466      4.93060         0.007443      0.003793     -0.018102
Li	      1.05863      1.02383      4.93404        -0.002216     -0.006993      0.019174
Li	      3.11305     -1.03135      4.93460        -0.002522     -0.000407      0.015871
Li	      3.13389     -1.04524      8.87860        -0.001337      0.001474     -0.000844
Li	      5.21569      1.03876      4.93384         0.000134     -0.002332     -0.000793
Mn	      1.06392     -1.02590      6.89497        -0.030356     -0.030328     -0.005488
Mn	      5.21836     -1.04732      6.90596         0.000982      0.000473      0.000532
Mn	     -1.05447     -3.14432      6.91472         0.029077      0.028922      0.005359
Ni	      3.11317      1.02309      2.95404         0.008222      0.010667     -0.002676
Ni	      3.13057      1.04038      6.90617         0.000452     -0.000369      0.000386
Ni	      1.06200     -1.02843      2.96595        -0.009763     -0.010259      0.002838
O	     -0.97531     -1.10555      6.90506         0.118307     -0.115287     -0.001594
O	      0.98437     -3.06532      6.90489        -0.115970      0.116337     -0.000406
O	      1.02685      0.97435      6.90794         0.013321     -0.035896      0.002831
O	      3.06383     -1.06253      6.90806        -0.036602      0.009170      0.002619
O	     -3.05410     -3.10747      6.90107         0.035508     -0.012086     -0.002550
O	     -1.02248     -0.97407      2.95619        -0.014348      0.036105     -0.001640
O	     -1.04542     -3.13566      8.80190         0.007873      0.007860     -0.104302
O	      1.05460     -1.03586      5.00775        -0.006730     -0.005236      0.102726
O	      1.04515     -1.04433      8.90241        -0.013966     -0.015810     -0.012987
O	      3.12450      1.03497      4.94207        -0.009297     -0.012580     -0.005425
O	     -3.11981     -1.03462      4.92224         0.008561      0.010609      0.007163
O	     -1.03547     -3.12560      4.90633         0.014306      0.014023      0.016617
