# total energy = -202.18185275 eV
 
CRYSTAL
PRIMVEC
-0.065962 6.112431 6.190217 
6.148516 -0.059559 6.184201 
4.119941 4.090968 -0.060024 
PRIMCOORD
36 1
Li	      2.02752      2.11072      0.07331        -0.093855      0.129702     -0.141963
Li	      8.21716      4.11162      4.12657        -0.033642     -0.059843      0.135480
Li	      6.02342      1.97787      8.14238        -0.055821      0.059736      0.001516
Li	      8.14756      4.05595      8.16917        -0.122849      0.059242     -0.032057
Li	      2.07860      1.99059      4.05746        -0.035678     -0.022315      0.106274
Li	      8.23097      6.05315      6.30999        -0.004094     -0.115096     -0.035401
Li	      8.11914      6.02589     10.15501         0.022194      0.088515     -0.011175
Li	      8.17182      7.99894      8.15783         0.022874     -0.088650      0.076357
Li	      6.22255      6.08799      8.19230         0.057471     -0.043301      0.053217
V	      4.06133      4.09233      4.11656         0.144842     -0.048520      0.292681
Fe	      6.04078      4.04964     10.14277        -0.464011     -0.079567      0.236513
Co	      4.09879      2.06683      1.99610         0.120118     -0.024271      0.142171
Co	      6.26295      8.07274     10.31461        -0.928546     -0.123848     -0.330187
Co	      6.16091      4.00840      6.23979         0.150520     -0.140863      0.013909
Co	      6.13632      8.11122      6.14390         0.007061     -0.144606     -0.064908
Co	      4.06496      6.10066      6.17593         0.114801      0.001598     -0.204974
Cu	     10.18024      4.06678      6.15018        -0.285196      0.298811     -0.225371
Cu	      2.07673      0.05782      2.06895         0.057728     -0.077983      0.035849
O	      8.17826      6.04661      8.21456        -0.051286      0.014066      0.107489
O	      2.19538      1.97556      2.06857         0.148576     -0.150851      0.005304
O	      4.17003      4.03494      2.08310         0.180310     -0.075843     -0.057518
O	      4.23533      2.14985      3.93297         0.092139      0.084903     -0.175574
O	      6.08746      4.02083      4.26454        -0.098538      0.351204     -0.341099
O	      6.15157      1.92145      6.08022         0.172521      0.031051      0.259346
O	      7.98312      4.11366      6.18676         0.433517     -0.115020     -0.055352
O	      2.07799      3.99011      4.22435         0.041936      0.020872     -0.001876
O	      4.09570      6.01571      4.15264         0.041046     -0.014228      0.064397
O	      4.17853      3.96022      6.06421        -0.299582      0.117881     -0.095493
O	      5.94623      6.22043      6.18902        -0.029301     -0.021788     -0.026944
O	      6.09717      4.01381      8.26118         0.017611      0.004193     -0.127623
O	      2.20050      5.90866      6.10304        -0.041032      0.065240      0.325654
O	      4.01585      8.25522      6.20523         0.148209     -0.148564      0.067755
O	      4.00810      6.27609      8.08723        -0.207662      0.144895      0.012054
O	      6.00368      8.24657      8.15418        -0.049603      0.159393     -0.032304
O	      6.06341      6.00000     10.41150         0.045795     -0.219620     -0.049868
O	      8.12380      8.10178     10.20098         0.781425      0.083476      0.073719
