# total energy = -203.49075050 eV
 
CRYSTAL
PRIMVEC
-0.053905 6.231469 6.129672 
6.137878 -0.023693 6.099088 
4.088883 4.130824 -0.012113 
PRIMCOORD
36 1
Li	      1.97396      8.26418      6.13396        -0.066902      0.172624     -0.032621
Li	      6.06796      4.17098      2.00440        -0.143691      0.086310      0.112053
Li	      4.00768      2.17030      2.05516        -0.063806      0.134247      0.108785
Li	      8.09567     10.29072     10.17858        -0.034459      0.047283      0.137762
Li	      6.20497      8.31666     10.19463         0.013466      0.057339      0.097440
Li	      0.06862      1.99025      2.04212         0.004612     -0.124877     -0.029892
Li	      2.13800      4.04733      2.02074         0.119029     -0.036882     -0.165796
Li	      2.01028      6.26814      4.13119         0.048563      0.051588     -0.113832
Li	      3.92586      6.26376      6.10814         0.014269     -0.014070     -0.053237
V	      6.01787      6.22687      8.22740         0.252827     -0.326847      0.295378
Fe	      4.16829      2.00312      6.08372         0.081557     -0.295716     -0.105085
Co	      1.98954      2.08535      4.01633         0.296128     -0.313201     -0.316587
Co	      6.17843      4.09120      6.06958         0.236432     -0.282770      0.034847
Co	      4.04656      8.25272      4.07287         0.035441     -0.125481     -0.035966
Co	      6.07115      8.29215      6.11107         0.040084      0.711249     -0.064733
Co	      8.14499      8.26570      8.16055         0.116778     -0.120930     -0.008758
Ni	      4.06287     10.33630      6.15609        -0.419880      0.238663      0.163177
Ni	      4.05882      4.18353      3.99413         0.033820      0.005567     -0.197637
O	      2.04308      2.08318      2.23156        -0.007152     -0.007273      0.146529
O	      4.06895      4.13893      2.02980        -0.034504      0.052575      0.050079
O	      3.90636      2.15330      4.11766        -0.115857     -0.322303     -0.022858
O	      6.06709      4.30922      4.09391         0.128549      0.201218      0.150346
O	      6.09784      2.04399      6.05085         0.213980      0.367169     -0.073053
O	      8.19721      4.16894      6.11933        -0.438111      0.004923     -0.049011
O	      1.94730      4.04111      4.18548        -0.215359      0.019481      0.361564
O	      4.21878      6.28373      4.08194        -0.060696      0.344695      0.081032
O	      3.98863      4.09488      6.16865        -0.209840      0.190023      0.283242
O	      6.15377      6.28564      6.08865        -0.218361      0.251138      0.025960
O	      6.00974      4.20187      8.19822        -0.118723      0.048355     -0.106202
O	      7.99224      6.31845      8.09049         0.002079      0.097249      0.116479
O	      1.93120      6.05067      6.12324         0.805076     -0.788620     -0.163383
O	      4.14997      8.30067      5.98741         0.061987     -0.373053     -0.030578
O	      4.21077      6.11229      8.12138        -0.321123     -0.017422     -0.066139
O	      6.19023      8.19949      8.08727        -0.030881      0.034937     -0.340749
O	      6.09937      6.05121     10.12491         0.044798      0.062717     -0.225872
O	      8.27315      8.23676     10.05247        -0.050127     -0.029906      0.037316
