# total energy = -206.32202249 eV
 
CRYSTAL
PRIMVEC
0.005183 6.261739 6.321717 
6.072336 -0.015796 6.343267 
4.036987 4.178049 0.000388 
PRIMCOORD
36 1
Li	      5.96877      0.15746      6.32984         0.116087     -0.058865      0.028815
Li	      4.07787      0.07148      4.33612        -0.021824     -0.002132     -0.140601
Li	      5.99147      2.04649      4.33540        -0.011054     -0.009544     -0.155550
Li	      6.11301      2.00644      8.29238        -0.028590     -0.054730      0.041385
Li	      8.07570      4.16808      8.36385         0.050398      0.018262      0.029028
Li	      4.04407      4.17378      4.14708         0.018312     -0.021664     -0.091821
Li	      4.15031      1.93259      6.25872        -0.070174      0.110482      0.042213
Li	      4.07617      8.34660      4.26793        -0.006629      0.056839     -0.070210
Li	      6.07874      6.26792      8.55016        -0.044887      0.016336      0.124935
V	      8.21193      8.24503      8.59963         0.019308      0.058513      0.250333
Fe	      6.07503      8.25436      6.30969        -0.045898      0.163983      0.063453
Co	      8.06289      2.17824      6.33331         0.121504     -0.219334      0.159571
Co	      6.04591      4.19745      2.13796        -0.341254      0.243289     -0.007795
Co	      4.02615      2.21888      2.18999        -0.171015     -1.167926      0.042323
Co	      1.99051      2.09565      4.17134        -0.069012     -0.143240     -0.046514
Co	      1.97365      6.17068      4.23278        -0.161127      0.013510     -0.062067
Co	      4.05138      6.20680      6.34869        -0.139119      0.063674      0.153213
Cu	      6.11268      4.12483      6.24283        -0.007887      0.025800     -0.038397
O	      2.03357      2.17123      2.23775        -0.038498     -0.216617     -0.145227
O	      4.14078      4.09316      2.03921         0.452805      0.625986     -0.020290
O	      3.90710      2.06678      4.09510         0.123175      0.348939     -0.457432
O	      6.02684      4.36688      4.01579        -0.018692      0.030200      0.113557
O	      6.08529      2.16457      6.28955         0.074810      0.119586     -0.023494
O	      8.05042      4.16614      6.32834        -0.182481      0.013464     -0.104013
O	      2.03590      4.09684      4.34717        -0.029969     -0.004859     -0.006024
O	      3.97495      6.26179      4.41209        -0.029082      0.033311      0.077204
O	      4.06859      4.25275      6.47702         0.052364      0.024607      0.080295
O	      5.98502      6.21082      6.15112        -0.005028     -0.106642     -0.074652
O	      5.90980      4.25613      8.50536         0.011518     -0.061409      0.006828
O	      8.13582      6.42614      8.50141         0.022305     -0.005024     -0.006425
O	      2.11869      6.18507      6.38218         0.102838     -0.019743      0.017814
O	      4.05370      8.14018      6.46190        -0.011480      0.176529      0.315566
O	      3.97067      6.14724      8.32084         0.062511     -0.135765     -0.110588
O	      6.15746      8.27212      8.34589         0.007136      0.087268     -0.025864
O	      6.25976      6.22626     10.60484         0.172373     -0.004356      0.074919
O	      8.05882      8.37494     10.39133         0.026256      0.001271     -0.034489
