# total energy = -205.81897052 eV
 
CRYSTAL
PRIMVEC
-0.015210 6.140290 6.338121 
6.146924 -0.005809 6.328468 
4.106244 4.095054 -0.011785 
PRIMCOORD
36 1
Li	      6.13909      6.10229     12.60248        -0.011756      0.064841      0.004545
Li	      6.13553      4.07619      2.12503        -0.105508      0.011267      0.000656
Li	      8.22502     10.11255     10.52558        -0.112303      0.043750      0.117891
Li	      6.22115      8.17953     10.48266        -0.028524      0.024236      0.062099
Li	      0.02789      2.06535      2.14928        -0.065066     -0.140315      0.027579
Li	      6.14579      4.11436      6.35331        -0.062330     -0.121797     -0.118335
Li	      6.08439      4.13440     10.51125         0.071302     -0.060053      0.040696
Li	      6.13028      8.20635      6.33047         0.143920      0.093160     -0.097771
Li	      8.20958      8.23154      8.53144        -0.034529     -0.017251     -0.072421
V	      4.16806      2.04170      6.32868         0.523754      0.312616     -0.114216
Fe	      4.12696      8.16347      8.40429         0.069449      0.426901      0.176610
Co	      8.21222      2.09442      6.29731         0.063661     -0.639512     -0.758362
Co	      6.13859      6.12664      4.19071        -0.201010     -0.343207      0.095068
Co	      4.13780      4.09102      4.21240        -0.549874     -0.108812     -0.149592
Co	      8.06608      6.20940     10.58389         1.288308     -0.603151      0.126010
Co	      4.09214      6.12517      6.35966        -0.187782     -0.352366     -0.126564
Co	      6.12162      6.11639      8.48432        -0.121071      0.007704      0.345052
Ni	      8.16283      4.08115      8.43467         0.277704      0.176452      0.030740
O	      2.08350      2.04527      2.20218         0.033776      0.010663     -0.530489
O	      4.09093      4.03156      2.31629        -0.162252     -0.183932     -0.457471
O	      3.99857      2.11836      4.25906         0.108491     -0.026838      0.055273
O	      5.98929      4.21380      4.19435         0.683118      0.496827     -0.029457
O	      5.97011      2.02629      6.33544         0.420804      0.036515      0.026731
O	      8.18333      4.05028      6.32736         0.042788      0.056850      0.204903
O	      2.20721      4.04987      4.19274        -0.547903     -0.100951      0.014222
O	      4.15153      6.01273      4.23988        -0.162666      0.234171      0.158778
O	      4.08852      4.02412      6.12166         0.022462     -0.305455      0.553326
O	      6.26840      6.13657      6.13751        -0.214173      0.051319      0.155671
O	      6.14897      4.25907      8.42507         0.083368      0.219438     -0.008770
O	      8.10487      6.15471      8.33097        -0.270459     -0.033131     -0.278561
O	      2.01858      6.28150      6.29602         0.355192      0.789101     -0.032060
O	      4.04699      8.20940      6.42588        -1.068066     -0.143388     -0.030015
O	      4.16682      6.15085      8.43721         0.304100     -0.032884     -0.000695
O	      6.08892      8.03394      8.43460         0.015570     -0.228148      0.005115
O	      6.25003      6.10382     10.55791        -0.403757      0.261096     -0.644145
O	      8.21341      8.13377     10.63407        -0.198738      0.124285      1.247960
