# total energy = -188.19563991 eV
 
CRYSTAL
PRIMVEC
-0.001907 6.199269 6.247149 
6.249709 -0.014157 6.259338 
4.151688 4.126176 0.005372 
PRIMCOORD
36 1
Li	      2.08603      0.09964      2.01735        -0.000677      0.013436     -0.057374
Li	      4.04157      2.08375      1.97650         0.030250      0.017592     -0.001120
Li	      4.19506      6.18371      2.19987         0.032734     -0.035768      0.007653
Li	      6.10038      6.27603      4.17778        -0.022373      0.034641      0.027011
Li	      4.07661      4.23506      4.19642         0.047178     -0.061630      0.038921
Li	      4.26789      8.13753      4.21504         0.056661     -0.005382      0.048467
Li	      6.22240      8.22452      6.21629        -0.012794     -0.004104      0.025560
Li	      4.17086      6.19071      6.24848        -0.006099      0.008476      0.131698
Li	      6.25411      6.10889      8.22187        -0.053718      0.025140      0.000145
V	      6.13486      8.29589     10.26508        -0.305039      0.133470     -0.025871
Fe	      4.17710      6.15838     10.32131         0.015945      0.059644      0.103878
Cu	      2.18603      6.11425      4.20876        -0.121205      0.097673     -0.051073
Ni	      0.03045      6.19822      6.27522        -0.023116      0.028824      0.109565
Ni	      2.11452      8.23452      6.30008        -0.043718      0.046221      0.099007
Ni	      2.06887      4.11619      2.12392        -0.005311     -0.060317      0.046748
Ni	      8.29089      6.19569      6.29580         0.011657     -0.032924      0.152118
Ni	      6.21481      4.16556      6.30186        -0.002272     -0.031628     -0.066850
Ni	      4.26918      4.07366      8.35462        -0.029038      0.108375     -0.038972
O	      2.05393      2.18663      2.03238         0.005951     -0.079120      0.137952
O	      4.02775      4.12989      1.92814         0.027572      0.043408      0.243811
O	      4.31789      2.01299      4.17477         0.127034      0.021146     -0.116762
O	      6.28001      3.93832      4.22133        -0.045706     -0.065038     -0.065956
O	      6.21823      1.99068      6.13793        -0.013516      0.128890     -0.005810
O	      8.28664      4.16500      6.17064         0.024881      0.034593      0.017523
O	      2.09491      4.19456      4.11957        -0.021189     -0.174968     -0.099217
O	      4.10285      6.17809      4.24438         0.174081      0.048562     -0.093450
O	      4.22827      3.99693      6.37358        -0.088185      0.049991     -0.102925
O	      6.35512      6.16448      6.20814        -0.034213      0.042418     -0.012078
O	      6.32816      4.11479      8.29428         0.017091     -0.056844      0.182062
O	      8.31329      6.12092      8.43919         0.055931      0.032283     -0.203973
O	      2.06010      6.22738      6.17856        -0.073072      0.029648      0.258908
O	      4.09067      8.43550      6.24288         0.098549     -0.212362     -0.116517
O	      4.18390      6.12132      8.45726        -0.009840     -0.009437     -0.263350
O	      6.28028      8.23603      8.53531         0.018353     -0.058135     -0.044586
O	      6.21714      6.35126     10.54906         0.074369     -0.051344     -0.205632
O	      8.17486      8.25104     10.46164         0.092844     -0.065429     -0.059512
