# total energy = -189.65597800 eV
 
CRYSTAL
PRIMVEC
0.024885 6.201090 6.167274 
6.335234 0.012144 6.179641 
4.214891 4.133816 0.016711 
PRIMCOORD
36 1
Li	      8.44390      8.28010     12.31365        -0.005714      0.014455      0.001491
Li	      2.29309      6.25054      8.24599         0.006967     -0.011823     -0.049305
Li	      4.22530      8.18104      8.24966         0.056637      0.026660     -0.043240
Li	     10.54136      6.29164      8.34556         0.002587     -0.013154     -0.032947
Li	      4.22031      2.10864      6.16149         0.020861     -0.044889      0.002602
Li	     10.54622      8.20711     10.23523        -0.070170     -0.014687      0.030396
Li	      4.28501      6.13091      6.21245        -0.016902     -0.022395      0.063818
Li	      4.19825      4.25568      8.18296        -0.074066      0.047036      0.012093
Li	      6.32357      6.14732      8.22754         0.011033      0.044933     -0.016683
V	      4.19745      4.05960      0.08761         0.037470      0.148394     -0.052689
Fe	      6.38236      8.33369     10.17249        -0.019288      0.078324      0.119487
Cu	      4.30887      6.24748     10.14780         0.102509      0.063368      0.161625
Cu	      2.04904      4.12876      2.13210         0.182341      0.013832     -0.120647
Cu	      2.15069      6.20367      4.13884        -0.039253      0.142611      0.040072
Ni	      6.29490      6.17426      4.16443        -0.022926     -0.274667     -0.115345
Ni	      4.15327      4.15129      4.22737         0.085831     -0.120993     -0.212401
Ni	      6.25539      4.11357      6.22065         0.025094     -0.106041      0.035924
Ni	      6.39896      8.19535      6.32089        -0.079359     -0.022076      0.233662
O	      4.26113      6.23670      8.32298        -0.011166      0.028950     -0.287413
O	      8.36205      8.52022     10.20767         0.329916     -0.189810      0.010250
O	      2.08084      2.24140      2.23027         0.008571     -0.078210     -0.213442
O	      4.05809      4.21984      1.87191        -0.048205      0.002935      0.192684
O	      4.35950      1.97097      4.06366        -0.270507      0.093584      0.014332
O	      6.13691      4.21495      4.14548         0.115697     -0.062593     -0.085160
O	      6.37979      2.01372      5.97996         0.015451     -0.089661      0.375244
O	      8.68952      4.15231      5.90104        -0.061738      0.020893      0.024250
O	      2.17239      3.88776      4.32986        -0.143125      0.325597     -0.001852
O	      4.01486      6.16176      4.17869         0.216310      0.093258      0.026261
O	      4.21335      4.07764      6.23898        -0.028563     -0.010759      0.122916
O	      6.32744      6.13316      6.05515        -0.004018      0.010882      0.255965
O	      6.54348      4.13504      8.16520        -0.130398      0.000333      0.204306
O	      8.43714      6.01601      8.44950        -0.011670      0.016140     -0.164074
O	      1.96187      6.20232      6.08115         0.017512      0.064131      0.092899
O	      4.28205      8.47712      6.18934        -0.038184     -0.023634     -0.027775
O	      6.34973      8.31523      8.31828         0.004178     -0.003495     -0.545961
O	      6.60932      6.27921     10.37232        -0.163712     -0.147427     -0.051342
