# total energy = -196.73886867 eV
 
CRYSTAL
PRIMVEC
0.024780 5.955408 6.149762 
6.601330 -0.008808 6.180637 
4.401345 3.991237 -0.006018 
PRIMCOORD
36 1
Li	     10.96981      4.00531      6.18034         0.023128     -0.094672      0.018926
Li	      6.58714      9.87492      8.19280        -0.031561      0.044741     -0.025382
Li	      4.54209      8.00747      8.18294        -0.043557      0.091771     -0.062204
Li	      8.87718      4.04321      8.19357         0.037279     -0.102130      0.052665
Li	      4.38913      3.98600      4.09046        -0.065352     -0.012210     -0.060626
Li	      6.64203      3.95863      6.18271         0.023165      0.022094      0.026291
Li	     10.97137      7.95000     10.29268        -0.019444     -0.003702      0.008714
Li	      8.64686      5.94789     10.27687        -0.008034     -0.011222      0.085477
Li	      8.71425      7.89179      8.24768         0.006987      0.092181      0.050975
V	      2.11033      2.00988      3.92938        -0.161867     -0.040812      0.133620
Fe	      4.47258      5.93002     10.20565         0.028373     -0.008052     -0.028199
Fe	      4.36879      5.91319      6.27569         0.150931      0.149544     -0.021481
Co	      6.50190      2.00344      8.10006         0.001537      0.080999      0.014600
Cu	      4.41993      2.02627      6.17274        -0.045202      0.025694     -0.153165
Cu	      6.62686      5.88954      8.23697        -0.009076     -0.301780     -0.133244
Ni	      2.28337      7.96492      6.16560         0.119418     -0.108905      0.025526
Ni	      6.64285      2.03357      4.11569         0.049897      0.073975      0.139668
Ni	      6.56064      7.96516      6.23768        -0.078182      0.105515     -0.136137
O	      6.53481      7.86561      8.26786         0.062171      0.114714     -0.032942
O	      2.26591      2.04029      2.18098        -0.023981     -0.027642     -0.115703
O	      4.42161      4.23195      2.02190         0.014908     -0.155023      0.077348
O	      4.26720      1.94449      4.20987         0.034536      0.416228      0.312471
O	      6.69350      4.13183      4.13594        -0.033628      0.018224     -0.050829
O	      6.84208      1.99603      6.16684        -0.093065      0.030135     -0.038518
O	      8.89759      4.06083      5.95662         0.000214      0.396315      0.728334
O	      2.27095      3.78585      4.18785         0.000620      0.090092     -0.083260
O	      4.69744      5.95220      4.11335         0.027179     -0.007734     -0.028403
O	      4.30140      3.98507      6.18525        -0.051672     -0.910876     -0.001650
O	      6.34183      5.93155      6.23824         0.364708     -0.019506     -0.010569
O	      6.64128      3.80710      8.21340         0.154515      0.086434      0.097253
O	      8.92785      5.95581      8.07509        -0.351696     -0.002482     -0.154469
O	      2.47257      5.95796      6.11528        -0.547633      0.008026      0.006482
O	      4.39102      7.83040      6.19513         0.024289      0.596652     -0.028562
O	      4.31338      5.92697      8.33744         0.311138      0.021264     -0.676656
O	      6.56002      5.96231     10.17298         0.082611     -0.080852      0.079988
O	      8.75475      8.04703     10.29337         0.046344     -0.576997     -0.016339
