# total energy = -195.76561864 eV
 
CRYSTAL
PRIMVEC
-0.001180 6.855806 5.999846 
6.008659 0.019948 5.984147 
4.023540 4.582915 -0.008448 
PRIMCOORD
36 1
Li	      4.01144     11.33334      5.97503        -0.017093     -0.023884     -0.037265
Li	      2.02064      9.12436      6.00724         0.042185      0.015126      0.001660
Li	      8.01479      4.61144      4.08679         0.024015      0.037713     -0.010303
Li	      6.07712      6.92499      4.10390         0.001098     -0.011226      0.085791
Li	      7.95494      6.90507      5.94788        -0.046787      0.057074      0.008294
Li	      6.05068      4.75698      5.93505        -0.007044      0.084337      0.024191
Li	      2.07518      4.71273      6.01194        -0.020864      0.012645      0.028359
Li	      3.97823      6.65019      5.92942         0.090229     -0.093452      0.012154
Li	      3.94997      4.62022      7.88754         0.047381      0.026422     -0.001878
V	      6.04556      2.47483      7.90913        -0.032752      0.153702     -0.077037
Fe	      5.99024      2.35016      4.02316        -0.000294     -0.034459      0.247846
Fe	      5.84228      6.97671      7.89704         0.313467      0.081921      0.003419
Co	      3.95639      9.16460      4.18310        -0.087713      0.019515      0.093123
Cu	      3.93738      9.02656      7.95983        -0.058526      0.048014     -0.243015
Cu	      8.08896      4.66528      7.95538        -0.227618     -0.082380     -0.023300
Cu	      4.02008      4.60537      4.01127        -0.022589     -0.047729      0.111417
Ni	      2.02113      6.86730      7.92579         0.110960     -0.114408      0.065024
Ni	      2.02540      6.93492      4.06337        -0.028381      0.020290     -0.025954
O	      1.96129      6.81553      6.02525         0.041681     -0.036917     -0.103540
O	      4.03097      9.20975      5.96402        -0.044357      0.011662      0.028628
O	      1.90900      2.08659      2.04122         0.079130     -0.075503     -0.040374
O	      3.95663      4.92907      2.11961         0.065362      0.160902     -0.063995
O	      4.05534      2.10487      3.90819        -0.034411     -0.092538      0.038566
O	      5.89256      4.35657      3.91169         0.007087      0.037576      0.060728
O	      6.02150      2.34326      6.11696         0.014282     -0.024172      0.014669
O	      8.07452      4.59794      6.14264         0.024639     -0.002922     -0.120484
O	      2.11453      4.75802      3.87257        -0.014403      0.082575      0.065893
O	      4.05006      7.12941      3.88306         0.053192      0.129204      0.043617
O	      4.02548      4.54133      5.81559         0.022132     -0.008891      0.029902
O	      6.01267      6.80645      6.12744         0.072193     -0.085656     -0.412236
O	      6.21562      4.42373      8.04909        -0.001002     -0.119723     -0.048916
O	      8.22811      7.08183      8.00112         0.090525      0.041597     -0.007653
O	      4.01661      6.65143      7.96103        -0.438596     -0.103593      0.006749
O	      5.93161      9.01240      8.01384        -0.106887      0.045890     -0.112877
O	      6.03874      6.75798      9.80856         0.009675     -0.116906      0.334861
O	      7.96459      9.07214      9.99658         0.080082      0.008193      0.023939
