# total energy = -197.96321999 eV
 
CRYSTAL
PRIMVEC
-0.051581 6.287335 6.136738 
6.342523 -0.056958 6.146125 
4.185059 4.151331 0.006596 
PRIMCOORD
36 1
Li	      4.14798      0.05678      4.10852        -0.009897     -0.035826     -0.032183
Li	     10.41526      6.30287      8.32737         0.018842      0.042621      0.017476
Li	      2.02880      4.18159      2.19437        -0.004044     -0.050285     -0.005173
Li	      6.18134      6.27871      4.09943        -0.060994      0.006662     -0.040550
Li	      4.16258      4.22524      4.09802        -0.029486      0.071965     -0.011833
Li	      0.12628      4.06810      4.01596         0.051744     -0.029440     -0.060785
Li	      2.16949      6.11639      4.05392         0.011124     -0.029021     -0.049332
Li	      2.20335      4.07681      5.97677         0.035192      0.000043     -0.001193
Li	      4.24574      6.14885      5.96279        -0.003897     -0.046160      0.005123
V	      8.47549      8.28863     12.14033        -0.139425     -0.015876      0.124972
Fe	      6.27581      6.26974     12.21970         0.040476     -0.049582      0.085550
Fe	      6.26938      6.17874      8.22775        -0.247385      0.189940      0.213285
Co	      4.20190      2.03919      2.12184         0.009842      0.093042     -0.176346
Co	      4.11158      2.14777      6.12452        -0.277947      0.103915     -0.298323
Cu	      6.31723      4.14268      2.12918         0.043869     -0.007059     -0.064405
Ni	      6.25463      2.07841      4.13723         0.266516     -0.059850     -0.055901
Ni	      6.26419      4.16520      6.12878         0.067099     -0.038594      0.084949
Ni	      8.37447      8.32275      8.20881        -0.066002      0.075883      0.113123
O	      2.28867      1.99223      1.95931         0.265847      0.029865     -0.019190
O	      4.31485      3.94037      1.94288        -0.094420     -0.262038      0.085927
O	      4.24892      2.05361      4.25776        -0.260316     -0.161865     -0.703354
O	      6.33519      4.05859      4.09584        -0.019078      0.146335      0.035745
O	      6.48517      2.01219      6.23957        -0.033698      0.002855      0.070696
O	      8.45833      3.95682      6.21022         0.001686     -0.201001      0.000963
O	      2.08463      4.18029      4.09198         0.028937     -0.074396      0.022931
O	      4.15050      6.23124      4.05585         0.030949      0.028461      0.030165
O	      4.26028      4.07390      6.19916        -0.277532      0.317249     -0.175733
O	      6.31174      6.17779      6.22557         0.126631      0.261315     -0.223300
O	      6.20446      4.24768      8.18791         0.123197     -0.201235      0.091968
O	      8.27178      6.27585      8.04093         0.338731     -0.259579      0.297884
O	      1.98421      6.48789      6.17895         0.039328      0.059322     -0.097100
O	      3.95548      8.41880      6.08631         0.282866     -0.133265      0.672829
O	      4.18163      6.34834      8.19505        -0.074569      0.234071      0.006906
O	      6.16738      8.31712      8.20303        -0.256177      0.044810     -0.064677
O	      6.27945      6.32484     10.25947        -0.023336     -0.073147      0.012347
O	      8.31891      8.32171     10.36513         0.095330      0.019864      0.106537
