# total energy = -199.18788646 eV
 
CRYSTAL
PRIMVEC
0.010865 6.217394 6.060814 
6.408554 0.000435 6.070776 
4.263047 4.142458 0.009470 
PRIMCOORD
36 1
Li	      6.38372      0.03213      6.03955         0.013496      0.086771     -0.034634
Li	      8.44988      2.13352      6.00940        -0.094028     -0.025663      0.045368
Li	      8.39995      4.07316      4.12022         0.000144      0.050051      0.018537
Li	      6.56756      8.29914     10.16092        -0.053886     -0.090907      0.096811
Li	      4.39198      4.17357      4.07060         0.027277      0.060814     -0.001862
Li	      6.42939      4.14301      6.01515         0.003130     -0.060136      0.026137
Li	      4.29871      6.11747      6.05664        -0.094029     -0.025037     -0.060023
Li	      4.35648      4.14872      8.11184         0.043068     -0.008345     -0.067876
Li	      6.41788      6.14475      8.10460        -0.051927      0.034907      0.066805
V	      4.42972      8.19630      8.09566        -0.100761     -0.153542      0.152084
Fe	      8.51219      4.12753      8.04501         0.132364     -0.035244     -0.087711
Fe	      4.31081      2.10621      5.95464         0.348767     -0.090627      0.043998
Co	     10.59724      6.24590      8.09749        -0.371747     -0.050917     -0.135113
Co	      8.48183      6.24818     10.15253         0.443397      0.551466     -0.634197
Cu	      6.36848      6.14415      4.08936        -0.040360     -0.006905      0.043828
Cu	      2.20362      4.14479      6.02636         0.018322      0.163226      0.196586
Ni	      6.35303      4.18100      2.04326        -0.055494      0.052174     -0.254370
Ni	     10.59298      8.34089     10.16980        -0.001284     -0.070499      0.043283
O	      2.19992      6.11893      5.95299        -0.087829     -0.059604      0.249374
O	      2.21416      2.09767      2.08323        -0.252226      0.157730     -0.030591
O	      4.20526      4.06087      2.04010        -0.160262      0.255134      0.060416
O	      4.40627      2.08326      3.91931        -0.003263      0.022632     -0.178470
O	      6.39242      4.22010      4.01572         0.001224     -0.069809      0.132856
O	      6.31574      2.10276      6.23918        -0.038916      0.017445     -0.195515
O	      8.54203      4.25768      6.11476        -0.061047     -0.113994     -0.084030
O	      2.05041      4.18284      4.03724         0.140757      0.193832     -0.036285
O	      4.03088      6.25203      3.90437        -0.103725     -0.112280      0.378271
O	      4.17282      4.04969      6.09488         0.113185      0.125331      0.014551
O	      6.48337      6.30234      6.00254        -0.100972     -0.049783     -0.026058
O	      6.50709      4.06980      8.11008        -0.201309     -0.473180      0.078963
O	      8.54243      6.13666      8.17426         0.602391      0.195599      0.032861
O	      4.31848      8.29049      6.24156        -0.062103      0.016268     -0.083136
O	      4.23436      6.41036      8.10836         0.122852      0.022137      0.013464
O	      6.25030      8.33838      8.04315         0.139064     -0.108561      0.110731
O	      6.65492      6.20317     10.11478        -0.172452      0.004181      0.145795
O	      8.56442      8.16287     10.13577        -0.041815     -0.404664     -0.040846
