# total energy = -199.23898646 eV
 
CRYSTAL
PRIMVEC
0.049336 6.331389 6.078444 
6.309346 0.054030 6.073118 
4.229324 4.240284 0.013249 
PRIMCOORD
36 1
Li	      4.22522      2.17019      2.18881         0.032120     -0.031948      0.091319
Li	      4.24507      0.18266      3.99618         0.006840      0.044511      0.070821
Li	      6.17684      2.13304      4.02751        -0.057080      0.029055      0.111027
Li	      4.27113      6.30251      2.05039         0.003777     -0.000780      0.050131
Li	      2.26475      2.10770      3.96889        -0.000893     -0.046645      0.060390
Li	      4.20412      4.10451      3.99661        -0.000905      0.028282      0.123786
Li	      6.35152      4.34164     10.00833         0.091423      0.026249      0.039599
Li	      2.20364      4.30964      6.11630        -0.007374      0.044406     -0.167227
Li	      6.30817      6.43754      8.19489         0.038442     -0.050764      0.042757
V	      4.44059      6.47536      5.99658        -0.040480     -0.409249     -0.483962
Fe	      8.34796      2.15987      6.05717        -0.097934     -0.044679     -0.363685
Fe	      8.36890      6.35889     10.03077         0.015372     -0.080440      0.390205
Co	      6.29517      4.21242      6.04809        -0.054952     -0.072939      0.750801
Co	      4.21195      4.31301      8.11731        -0.090619     -0.302993      0.611756
Cu	     10.52564      4.29979      6.08740         0.014268      0.076882     -0.210074
Cu	      6.31320      4.23468      2.11720        -0.230630      0.097979      0.099088
Cu	      2.18932      4.12177      2.07765        -0.320715      0.239629      0.017478
Ni	      4.20925      2.17238      6.06055        -0.025979     -0.015092     -0.065499
O	      6.52035      8.65454      8.14459        -0.189633     -0.131376     -0.083281
O	      6.42283      6.34965     10.23544        -0.317509      0.051562     -0.063159
O	      2.08885      1.92987      1.94844        -0.011956      0.129696      0.203079
O	      4.28193      4.19881      1.93352         0.137078      0.004342     -0.004326
O	      4.19060      2.13971      4.14500         0.008155     -0.026339     -0.388375
O	      6.34318      4.27605      4.31384         0.158733      0.047186     -1.169341
O	      6.33528      2.20707      6.07423         0.200047      0.005522      0.124411
O	      8.38819      4.20370      6.20570        -0.038042     -0.147010      0.073141
O	      2.14396      4.39086      3.94094         0.007838     -0.676837     -0.151674
O	      4.21993      6.30022      4.23363         0.144301      0.099657      0.062445
O	      4.25136      4.36023      6.19480         0.291777      0.112242     -0.790517
O	      6.22487      6.39890      6.10373        -0.028125      0.039321      0.147752
O	      6.23324      4.28873      7.92800         0.152043     -0.019004      0.438289
O	      8.41138      6.58166      8.11044         0.048520     -0.326648     -0.561609
O	      2.26572      6.37835      5.93635         0.024472      0.094899      0.531883
O	      4.22036      8.23695      6.11351        -0.057663      0.306990      0.061996
O	      4.17959      6.26802      7.97105         0.036480      0.515182      0.035595
O	      8.52737      8.36116     10.11065         0.158806      0.389150      0.364982
