# total energy = -192.38425491 eV
 
CRYSTAL
PRIMVEC
0.030200 6.159398 6.226378 
6.263532 -0.000083 6.257602 
4.176483 4.127488 -0.000854 
PRIMCOORD
36 1
Li	      8.31230      8.25439     12.38080        -0.117999      0.056421     -0.015401
Li	      6.38506     10.18478      8.46748        -0.002092     -0.005982      0.094562
Li	      6.28893      2.14864      4.18363        -0.037632     -0.006059      0.058194
Li	      6.36315      6.04899      4.27745         0.082124      0.002237      0.036612
Li	      4.28477      4.12685      4.21492         0.076017     -0.064935     -0.040268
Li	      4.21714      2.10715      6.12173         0.051399     -0.045243     -0.049302
Li	      6.23394      4.08797      6.14140         0.085671     -0.166150      0.033495
Li	     10.34907      8.22461     10.45505        -0.001844      0.043852     -0.040774
Li	      8.27386      8.29871      8.32468        -0.018535     -0.039639      0.036901
V	      2.04504      3.97025      2.17081        -0.002283     -0.012885     -0.591997
Fe	      6.25427      0.04263      6.23095        -0.121184     -0.046471     -0.047235
Fe	      6.24831      6.26193      8.29840         0.307228     -0.222273      0.146244
Cu	      8.36423      6.26628     10.38766        -0.143563      0.061986      0.023753
Ni	      8.28456      4.12774      4.18290         0.114288     -0.432067      0.109295
Ni	      4.22923      2.04949      2.16570        -0.110460      0.240450     -0.014334
Ni	     10.40482      6.17101      8.35996         0.077168      0.090330     -0.078022
Ni	      2.14862      4.11813      6.23042        -0.115945     -0.031812     -0.036497
Ni	      4.19272      6.16372      6.19615         0.029418      0.082349     -0.175395
O	      8.39343      8.25756     10.38313         0.013036     -0.101872     -0.004285
O	      2.07890      2.18658      2.09686         0.040888     -0.059319      0.123261
O	      4.02720      4.11697      2.05829        -0.002375     -0.031048      0.112733
O	      4.16705      1.87507      4.14049         0.007265      0.426803      0.099789
O	      6.40694      4.11309      4.20939        -0.275527      0.032631     -0.051153
O	      6.29390      1.90044      6.34799         0.012489      0.564954      0.033604
O	      8.48937      4.09788      6.39779        -0.261613     -0.017063      0.260924
O	      2.10072      4.16291      3.96844        -0.014756      0.077994      0.143612
O	      4.06498      6.23083      4.14125         0.084770     -0.037800     -0.259944
O	      4.03923      4.17010      6.19803         0.127872     -0.329278      0.018049
O	      6.24049      6.31453      6.29113         0.019481     -0.112911     -0.115791
O	      6.48825      4.13797      8.21408        -0.043414      0.165102      0.088752
O	      8.33710      6.07617      8.41512        -0.163476      0.074426     -0.098633
O	      2.06605      6.07582      6.12079         0.244745     -0.002563      0.030355
O	      4.37229      8.30703      6.27057        -0.001048     -0.044165     -0.091907
O	      4.27162      6.18123      8.26707        -0.198172     -0.236038      0.291712
O	      6.27804      8.19370      8.28143         0.180961      0.173773      0.083453
O	      6.22989      6.14298     10.39188         0.077098     -0.047734     -0.114362
