# total energy = -193.73534269 eV
 
CRYSTAL
PRIMVEC
0.044997 6.271550 6.227973 
6.163170 0.013259 6.259908 
4.108842 4.202667 0.008316 
PRIMCOORD
36 1
Li	     10.19737      4.30053      6.34598        -0.045127      0.025674     -0.028289
Li	      4.20386      8.36770      8.26648        -0.016529     -0.014306     -0.021232
Li	      8.25270      4.23652      8.22051         0.015076      0.023026      0.015374
Li	      4.09972      4.19691      4.26026        -0.034403     -0.048210      0.048349
Li	      6.13531      4.14719      6.32561        -0.034063     -0.019997     -0.006053
Li	      8.34309      6.33126     10.31481         0.017133      0.041133      0.080437
Li	      6.26788      8.38801      6.39119         0.023314     -0.028143     -0.047701
Li	      8.22749      8.29704      8.24753         0.049576     -0.020806     -0.012001
Li	      6.20547      6.39017      8.21119        -0.073558      0.014050     -0.036491
V	      6.29635      4.36912     10.47788        -0.082472     -0.036348     -0.084260
Fe	      6.23379      8.42865     10.30771        -0.006083     -0.053427      0.329141
Fe	      6.18768      6.27296      4.23752         0.000308      0.016802      0.034420
Cu	      4.11857      6.26499      2.10810        -0.178073      0.082563      0.068548
Cu	      4.13963      6.20154      6.33905         0.069913     -0.097431     -0.044507
Ni	      8.18352      2.17841      6.28947        -0.000174      0.100137     -0.015897
Ni	      2.09435      6.27015      8.27825        -0.715892     -0.156079      0.031149
Ni	      4.15515      6.27648     10.38548         0.046551     -0.035298     -0.062804
Ni	      8.26664      6.27004      6.28890        -0.062111     -0.187618     -0.027147
O	      8.42153      6.22041      8.26020        -0.083749     -0.004032      0.177067
O	      1.90825      2.13617      2.15472         0.160760     -0.168957      0.050513
O	      4.25259      4.39314      2.08262        -0.521575     -0.108002     -0.082234
O	      4.06224      2.07336      4.20650         0.088478      0.105084     -0.110707
O	      6.18879      4.22185      3.97415        -0.079267      0.005731      0.817137
O	      6.17882      2.07874      6.00560         0.037847     -0.064933      0.025286
O	      8.17693      4.29099      6.18403         0.008168     -0.205184      0.173848
O	      1.91993      4.14166      4.20380         0.059504      0.024109      0.007993
O	      4.16215      6.37516      4.45658        -0.061664     -0.002093     -0.172404
O	      4.13790      3.95536      6.25538        -0.042197      0.454022      0.004787
O	      6.05113      6.21307      6.21694         0.075486     -0.005483      0.147315
O	      6.14263      3.94750      8.62043         0.006823      0.058207     -0.073851
O	      2.25347      6.34893      6.38686        -0.025028     -0.015129     -0.778164
O	      4.08725      8.55864      6.04001         0.173365     -0.007185      0.100197
O	      4.01005      6.28553      8.22874         0.962984      0.033643      0.030400
O	      6.14639      8.37518      8.41597         0.034738      0.230372     -0.311762
O	      6.22612      6.15877     10.24517         0.173397      0.162099     -0.033554
O	      8.30604      8.41451     10.45819         0.058544     -0.097990     -0.192902
