# total energy = -194.37072150 eV
 
CRYSTAL
PRIMVEC
0.036561 6.131944 6.403444 
6.204426 0.032184 6.408617 
4.126171 4.080762 0.031369 
PRIMCOORD
36 1
Li	      8.20868      2.12296      6.39801         0.070706     -0.063690      0.023206
Li	      6.16344      4.13636      2.22264        -0.060550      0.049973      0.031002
Li	      8.23744      4.06243      4.38733         0.007249     -0.008335      0.013176
Li	      6.24589      2.12860      8.47735         0.023668      0.033193      0.033017
Li	      4.14490      4.09159      4.30215        -0.016383      0.004916     -0.063616
Li	      6.20688      4.12172      6.47449        -0.008716      0.060621      0.019646
Li	      6.20612      4.14018     10.54613         0.004525     -0.001161     -0.044333
Li	      2.15471      4.08062      6.36148        -0.034457      0.002260     -0.056553
Li	      6.26374      6.08161      8.58422         0.002186     -0.032989      0.019772
V	      4.29391      8.09976      8.53708        -0.364567      0.195237      0.002206
Fe	      6.15245      6.08088      4.29371        -0.104921      0.182043     -0.246875
Fe	      2.11226      6.13333      4.30137         0.133887     -0.088718      0.383697
Cu	      4.16381     10.20661      6.43062        -0.011154     -0.072765      0.037851
Cu	      8.27783      6.17185      6.47271        -0.250630      0.116416      0.053026
Cu	      4.25351      4.12504      8.55560         0.350954     -0.055962      0.295461
Ni	      6.21636      2.13532      4.34335         0.028812      0.115146     -0.118129
Ni	      8.24848      4.10571      8.54114         0.049636     -0.061467      0.330489
Ni	      4.15653      6.09737      6.40091         0.014013      0.061112     -0.074872
O	      6.36727      6.19023     10.80260        -0.330699     -0.011969      0.193785
O	      8.28019      8.21723     10.54620        -0.081023     -0.020976      0.225084
O	      2.14189      2.03874      2.30650         0.034190     -0.107496     -0.372894
O	      4.06303      3.93136      2.03419         0.304119      0.025039     -0.219292
O	      4.12916      2.05235      4.01676         0.007066      0.031444      0.094841
O	      6.17127      4.21621      4.28914        -0.010582     -0.390929      0.035631
O	      6.12406      2.01879      6.36752        -0.014849      0.112684      0.167663
O	      8.32267      4.21856      6.51974         0.085067      0.049816     -0.188784
O	      2.05903      3.96142      4.19688         0.077644      0.325767      0.041556
O	      4.05799      6.09933      4.37349         0.372623     -0.074335      0.032512
O	      4.15710      4.04508      6.65055        -0.063599     -0.179998     -0.395112
O	      6.25755      6.17520      6.19421         0.256752     -0.045244      0.559847
O	      6.31879      4.14334      8.52606        -0.671082     -0.062836     -0.043092
O	      8.29040      6.14939      8.83553         0.000417      0.129513     -0.977762
O	      2.08062      6.12424      6.20392        -0.165311      0.036404      0.387981
O	      4.09269      8.18205      6.65109         0.020269      0.001849     -0.049500
O	      4.15777      6.26616      8.44225         0.011472     -0.283648     -0.041898
O	      6.06137      8.19702      8.61568         0.333267      0.029086     -0.088736
