# total energy = -194.23801008 eV
 
CRYSTAL
PRIMVEC
0.025883 6.280754 6.039304 
6.629903 0.065558 5.997757 
4.449356 4.189905 0.014131 
PRIMCOORD
36 1
Li	      6.61484      4.27946      2.05915        -0.040628      0.070557      0.026595
Li	      8.69245      4.26240      4.07076        -0.083662      0.045906      0.044902
Li	      0.15746      2.09038      2.08398         0.075178     -0.001594      0.033275
Li	      6.44924      6.28991      4.07074        -0.053144      0.023957      0.034399
Li	      4.62786      4.20506      4.05241        -0.068284      0.048420     -0.003423
Li	      6.53322      4.15263      5.93229        -0.076218      0.095306      0.011207
Li	      2.39556      6.27493      4.07539         0.096071     -0.110384     -0.037405
Li	      2.40694      4.24189      5.92455         0.150333     -0.043751     -0.120176
Li	      4.24286      6.31659      5.94012         0.004700     -0.071164      0.000816
V	      6.35657      6.30555      7.92343         0.069565     -0.129238     -0.489928
Fe	      0.23765      6.28268      6.00728        -0.185537     -0.036672      0.064921
Fe	      2.40291      4.21316      2.07147         0.054456      0.154803     -0.014392
Cu	      6.70117      2.25233      4.04271        -0.458788     -0.047105     -0.092510
Cu	      4.44764      2.13531      5.99022        -0.061096      0.043088     -0.151659
Cu	      4.47293      8.35501      4.04855         0.200575     -0.017440     -0.003243
Cu	      8.82590      8.35003      8.04304        -0.004355      0.018477     -0.017633
Cu	      2.28374      8.34176      5.99449         0.013445      0.105112      0.083940
Ni	      4.39887      2.18055      2.09685         0.012364     -0.102903      0.023549
O	      2.14300      6.17725      6.08954         0.099307      0.050614     -0.034807
O	      4.27704      8.45407      5.96422        -0.217751     -0.066949     -0.058967
O	      8.68975      8.42365      9.95656         0.024228      0.007351      0.264723
O	      2.33141      2.31640      1.96252        -0.043765     -0.523374     -0.208340
O	      4.42819      4.19710      1.98212         0.157792      0.082765     -0.091624
O	      4.70009      2.12655      4.12992         0.159772     -0.016349     -0.081647
O	      6.68535      4.20922      3.99680         0.002886      0.142030     -0.016286
O	      6.91500      2.10937      5.97634         0.204486      0.120864      0.086331
O	      9.01494      4.44037      6.12792         0.055723     -0.240816     -0.398616
O	      2.32254      4.20954      3.84723         0.099507      0.000646      0.638606
O	      4.43128      6.50969      4.01559        -0.022996     -0.114163     -0.037040
O	      4.41461      4.00790      6.12458         0.008628      0.177517     -0.092663
O	      6.48543      6.28879      6.18116        -0.040467     -0.055247      0.390052
O	      6.56058      4.39463      8.10713        -0.016195     -0.170413      0.047049
O	      8.67309      6.17416      7.88076        -0.108533      0.357776      0.241664
O	      4.57174      6.41213      8.04642        -0.036450     -0.131435      0.018982
O	      6.64156      8.14657      8.12369         0.062733      0.137694     -0.018253
O	      6.66826      6.14242      9.95600        -0.033878      0.196112     -0.042396
