# total energy = -90.84165908 eV
 
CRYSTAL
PRIMVEC
2.089426 2.089393 3.958729 
-4.175109 -0.004816 3.959223 
4.170445 -4.170672 0.000244 
PRIMCOORD
16 1
Li	      1.05723     -3.14703      4.95005        -0.012394     -0.006558      0.002048
Li	      1.06063      1.02508      4.94793         0.006066      0.019047     -0.003058
Li	     -1.05763     -1.02879      4.94959        -0.009587     -0.018960      0.004197
Li	      3.11402     -1.02901      4.94826         0.016873      0.008753     -0.003430
Mn	      1.06300     -1.02523      6.92573        -0.030273     -0.032402      0.011398
Mn	      3.10959     -3.14906      2.97319         0.032914      0.030528     -0.018409
Ni	     -1.05702      1.02505      6.91577         0.001375      0.002606     -0.014326
Ni	      1.05928     -1.02935      2.98134        -0.005825     -0.004142      0.016131
O	      1.00360      1.08201      2.96938        -0.067011      0.066319      0.001238
O	     -1.04359     -1.04369      2.96940        -0.000926     -0.000212      0.000137
O	      3.17033     -1.08420      2.96958         0.066127     -0.067109      0.000135
O	      1.04440     -3.13226      2.96963         0.000296      0.000957      0.000033
O	      1.05640     -1.03185      5.03769         0.000816     -0.000728      0.094929
O	      3.12997     -3.12899      0.98970        -0.001346      0.000231      0.002302
O	     -1.05458      1.02809      4.86138         0.003150      0.001208     -0.093589
O	      1.04334     -1.04510      0.98871        -0.000255      0.000460      0.000265
