# total energy = -194.47914030 eV
 
CRYSTAL
PRIMVEC
0.028876 6.104489 6.530843 
6.190840 -0.007066 6.565350 
4.121106 4.087837 0.000743 
PRIMCOORD
36 1
Li	      2.11792      2.10243      0.13972        -0.037358      0.126755     -0.017104
Li	      4.22179      6.09136     10.92879        -0.021749      0.095976      0.076689
Li	      4.15594      6.17643      2.34434        -0.064792      0.055671     -0.136935
Li	      2.10611      3.99105      2.18226        -0.069997      0.128734     -0.111147
Li	      6.08779      6.18062      4.35379         0.088052     -0.089084      0.031932
Li	      4.02597      4.16434      4.33003         0.035515     -0.079371     -0.036136
Li	      6.21133      4.14287      6.68322         0.060478     -0.047079      0.105886
Li	      4.20310      6.07422      6.44657         0.029559     -0.042841     -0.033603
Li	      6.15193      6.08393      8.64354         0.066921     -0.088661     -0.036692
V	      6.14376      2.19762      4.48999        -0.227575     -0.088609      0.407171
Fe	      2.09920      6.13446      8.64604        -0.158384     -0.105092      0.108765
Fe	      8.15683      6.09232      6.62951         0.254159     -0.113210     -0.072318
Cu	      4.12277      8.08862      8.72610        -0.039276     -0.133209      0.061130
Cu	      6.22389      4.05764     10.85178         0.073404      0.041899     -0.203246
Cu	      8.28974      6.08763     10.85695        -0.025614     -0.035400     -0.170834
Cu	      2.06304      4.00705      6.44373         0.141396     -0.100016      0.115719
Cu	      4.19402      4.06669      8.71442         0.008123      0.134371     -0.159459
Cu	      4.17606     10.16758      6.53686        -0.407305      0.276849      0.082116
O	      4.17743      8.20755      6.30484         0.132237     -0.248206      0.099215
O	      4.06343      6.08269      8.72077         0.141224      0.231579      0.117374
O	      6.28835      6.16056     11.05411         0.304911      0.030853     -0.189230
O	      8.18518      8.09688     10.76158        -0.202292     -0.195839      0.061679
O	      2.13978      1.94994      2.18167         0.107693      0.055359      0.033428
O	      4.19099      3.95671      2.05851         0.055609      0.006105      0.216363
O	      4.31172      2.04613      4.60192         0.174804      0.018930     -0.332942
O	      6.20293      3.94489      4.36156         0.066695      0.338982     -0.079311
O	      6.31625      2.03052      6.31936         0.036023      0.022197      0.047395
O	      8.33219      4.23183      6.60571         0.159097     -0.835364     -0.127318
O	      2.00067      4.15098      4.18690         0.196993      0.268752      0.041372
O	      4.04739      6.17642      4.34046        -0.264692     -0.226937      0.039507
O	      4.08200      3.93976      6.68555        -0.363086      0.745935     -0.050753
O	      6.23137      6.14291      6.47620        -0.447799      0.163968     -0.072053
O	      6.13393      4.10682      8.85392         0.031771      0.014302     -0.005832
O	      8.30649      6.19863      8.50087        -0.010722     -0.220032      0.616807
O	      2.02966      5.96351      6.66453         0.202779     -0.058374     -0.106598
O	      6.12131      8.10869      9.08385        -0.026801     -0.049892     -0.321035
