# total energy = -217.12312191 eV
 
CRYSTAL
PRIMVEC
0.003987 6.225191 6.385345 
6.120216 0.027255 6.362128 
4.098277 4.153505 -0.000616 
PRIMCOORD
36 1
Li	      4.10052     10.35915      6.39327        -0.019411      0.019297      0.001952
Li	      6.11586     10.26991      8.53627         0.023019     -0.003963      0.051599
Li	      4.23196      8.48256      8.41651         0.033856      0.088561      0.020589
Li	      6.18686      8.21378     10.51077        -0.036923     -0.080266     -0.038569
Li	      2.11028      4.13618      2.10421        -0.002144     -0.005044     -0.069090
Li	      6.14515      4.15332      6.41529         0.006932     -0.013581      0.015099
Li	      6.09396      4.23641     10.59203        -0.063478      0.046100     -0.055734
Li	      6.08569      8.33566      6.48412         0.002966      0.004391      0.051888
Li	      6.08345      6.25160      8.63418        -0.032297     -0.032156      0.064793
Mn	      4.08447      6.26626      6.51455        -0.069970     -0.195714     -0.066280
V	      2.08400      2.12059      4.19998         0.229766     -0.071755     -0.302464
Cr	      6.13025      2.10110      8.45248         0.096980     -0.006180      0.065021
Cr	      8.16167      6.22763      6.38771         0.084005     -0.024631     -0.031324
Cr	      8.10136      6.18959     10.61905        -0.259115      0.106465     -0.349900
Co	      8.14464      8.29801      8.50604        -0.062682     -0.018640      0.100272
Cu	      8.15070      2.14564      6.33736        -0.097839      0.121436     -0.049807
Cu	      4.20132      6.17748     10.63228        -0.205242     -0.042522     -0.271473
Ni	      4.10833      4.18938      4.18246         0.123142     -0.056728      0.058321
O	      6.28504      8.29513      8.48410         0.115981     -0.012634     -0.024172
O	      2.01788      2.15708      2.36752        -0.056094      0.016701      0.274372
O	      4.12221      4.23715      2.17144         0.018194      0.130737     -0.054177
O	      3.96929      2.19799      4.36151        -0.211546      0.080919      0.090781
O	      6.16866      4.41992      4.26580         0.137769      0.262285      0.030477
O	      6.09576      2.10529      6.45933         0.027192      0.029236     -0.031186
O	      8.17353      4.21196      6.22744        -0.012029     -0.048731      0.275172
O	      2.03788      4.09312      4.26335        -0.026258     -0.068343      0.010082
O	      4.13561      6.22453      4.18669         0.030991      0.046380     -0.066959
O	      4.06856      4.21019      6.48411        -0.009218      0.040607     -0.010552
O	      6.09903      6.29198      6.19041        -0.032269     -0.003598     -0.040604
O	      5.95190      4.09087      8.46313        -0.121970     -0.074888     -0.012048
O	      8.20196      6.28760      8.43376         0.050032      0.062824      0.069630
O	      2.13121      6.31548      6.22002         0.074775      0.016387      0.213617
O	      3.99087      8.15803      6.47548        -0.024061      0.021681     -0.051778
O	      4.07966      6.04855      8.58551         0.059700     -0.094440      0.270741
O	      6.17429      6.21062     10.63884         0.216653     -0.071579      0.000917
O	      8.15815      8.15175     10.37892         0.010590     -0.168613     -0.139206
