# total energy = -217.40776997 eV
 
CRYSTAL
PRIMVEC
0.039850 6.221406 6.365452 
6.308117 0.027835 6.376572 
4.204264 4.153793 0.020559 
PRIMCOORD
36 1
Li	      0.07892      6.16347      6.28193        -0.022536      0.045763      0.082633
Li	      4.35784      8.20415      8.40305        -0.083852      0.059718     -0.057731
Li	      4.10533      2.15224      6.31860         0.062440     -0.111594      0.039172
Li	      4.22815      8.38361      4.38728         0.029220     -0.029788     -0.054308
Li	      2.06585      6.19378      4.40446         0.030491     -0.021534      0.005448
Li	      6.34227      8.23981      6.42756        -0.051665      0.024579     -0.064809
Li	      4.26614      6.26017      6.41257        -0.041691      0.029995     -0.058187
Li	      4.12381      4.22363      8.29456         0.056184     -0.042887     -0.102446
Li	      6.20532      6.37419      8.45815         0.000446     -0.096834      0.000498
Mn	      2.22896      8.30176      6.39724         0.060698      0.014567      0.229153
V	     10.34147      6.34356      8.51963         0.257097      0.096948      0.212271
Cr	      2.21328      6.16499      8.39824        -0.181751      0.045992     -0.080260
Cr	      6.33589      6.23029      4.29965        -0.050257      0.024875     -0.134398
Cr	      4.23411      4.12047      4.30772        -0.117000      0.008669     -0.276301
Co	      2.15567      4.14792      2.14644         0.085106     -0.033599      0.138406
Cu	      4.32812      6.25722     10.59783         0.119653     -0.002115     -0.162992
Cu	      6.41723      8.25525     10.44026         0.081693     -0.190433     -0.035918
Cu	      6.28023      4.24505      6.43846         0.085559     -0.047685      0.121235
O	      6.33542      8.37405      8.41899        -0.015093     -0.030371      0.006457
O	      6.26759      6.36943     10.59429         0.216565      0.014153      0.014077
O	      2.03852      2.01393      2.11648         0.015792     -0.029642      0.017646
O	      4.26787      4.30328      2.21636         0.055305     -0.027670      0.060685
O	      4.10182      2.07031      4.23482         0.042734      0.133293      0.026682
O	      6.28997      4.12066      4.08743        -0.105293      0.053796     -0.045661
O	      6.43953      2.14229      6.65489         0.010990     -0.037163     -0.102213
O	      8.33797      4.08195      6.48543        -0.121927     -0.057045      0.399706
O	      2.23644      4.06543      4.21642        -0.088655      0.082338     -0.383017
O	      4.31525      6.11545      4.09495        -0.001597      0.001366      0.125199
O	      4.33216      4.14875      6.24514        -0.079534     -0.003503      0.036828
O	      6.30451      6.17565      6.24983        -0.003024      0.099214     -0.009270
O	      6.39034      3.95460      8.68212         0.092745      0.004733      0.052535
O	      8.59841      6.27598      8.53032        -0.339507     -0.050707      0.030762
O	      2.14528      6.37952      6.43011         0.010646      0.045425     -0.065539
O	      4.06022      8.33035      6.39801         0.027101      0.003916     -0.041381
O	      4.14225      6.18250      8.56713         0.102446      0.010802      0.006733
O	      8.42920      8.42058     10.90307        -0.139528      0.012427      0.068307
