# total energy = -215.04427478 eV
 
CRYSTAL
PRIMVEC
0.010438 6.168471 6.248234 
6.288657 -0.036513 6.295292 
4.178702 4.129967 -0.010697 
PRIMCOORD
36 1
Li	      8.29476      4.15911      4.22129        -0.025076      0.034862      0.057122
Li	      6.20556      2.10425      4.18528        -0.046355     -0.026445      0.019543
Li	      6.30632      2.10055      8.31059        -0.051086      0.007160     -0.019966
Li	      6.36239      6.09068      4.19148         0.032631      0.005727      0.031503
Li	      4.20679      2.06156      6.19589         0.030450     -0.005183     -0.061697
Li	      6.24394      4.09690      6.29051        -0.035047      0.018604      0.052375
Li	      6.32645      8.19538      6.31406         0.061548     -0.014873      0.019210
Li	      4.22785      4.06048      8.32296         0.039325     -0.056741     -0.015248
Li	      6.31181      6.12207      8.29511         0.066835     -0.034183     -0.035376
Mn	      6.27602     -0.00000      6.29840        -0.159988      0.264029     -0.141010
V	      8.35978      6.22187     10.40589        -0.027148      0.034189     -0.170530
Cr	      4.24299      8.19548      8.38694        -0.012341      0.048778      0.107161
Cr	      8.33661      4.10320      8.37620        -0.188245      0.184213      0.013251
Cr	      4.31914      6.10298      6.28237         0.402160     -0.267921     -0.130784
Cu	      6.36799     10.23196      8.47004         0.092622      0.103222     -0.073973
Ni	      8.32184      2.04832      6.29051        -0.086639      0.055899     -0.040556
Ni	      4.23104      4.06801      4.22036        -0.062733     -0.013842      0.018475
Ni	      0.02900      4.07146      4.10663         0.009556     -0.031881     -0.047051
O	      2.18522      2.09700      2.04600         0.024266     -0.080716      0.099821
O	      4.11670      4.06418      1.96635         0.109645      0.013937     -0.056925
O	      4.16770      2.07512      4.08559         0.026956     -0.110893      0.023456
O	      6.21943      4.10578      4.13604         0.116339      0.000573      0.047929
O	      6.30000      1.86166      6.30156        -0.108055     -0.158529     -0.057408
O	      8.52465      4.09319      6.33762         0.156880      0.096751      0.033090
O	      2.12490      4.24501      4.09851         0.000612      0.067414     -0.040039
O	      4.07337      6.14257      4.28645         0.079358     -0.005856      0.144365
O	      4.15991      4.25936      6.26490         0.039141      0.297734      0.107782
O	      6.10507      6.20414      6.25063        -0.367851     -0.068560     -0.007195
O	      6.39496      4.06947      8.38548         0.046694      0.036304     -0.125684
O	      8.35952      6.12598      8.50846         0.034322     -0.108465     -0.111968
O	      2.03446      6.17088      6.19508        -0.048958     -0.099636      0.091695
O	      4.13289      8.18874      6.26009         0.093411     -0.019801      0.115195
O	      4.20174      6.23116      8.25912        -0.131646     -0.158567     -0.031204
O	      6.18167      8.30251      8.32901         0.048640     -0.060202      0.045722
O	      6.40194      6.06276     10.62228        -0.048385      0.152876      0.144761
O	      8.42346      8.07443     10.44098        -0.111838     -0.099974     -0.005844
