# total energy = -213.76692757 eV
 
CRYSTAL
PRIMVEC
0.012295 6.123395 6.392887 
6.164747 -0.000467 6.406028 
4.112294 4.093223 -0.003557 
PRIMCOORD
36 1
Li	      6.24035      4.11784      2.26502         0.015982      0.018802      0.026130
Li	      4.08850      2.00417      2.24031        -0.060896      0.029451      0.027495
Li	      6.05182      2.08610      4.19621         0.044322     -0.026614      0.022004
Li	      4.16264      6.17058      2.27741        -0.036084     -0.003112      0.011511
Li	      2.05280      2.01809      4.21232         0.012353     -0.034998     -0.025192
Li	      4.17378      4.05605      4.20975         0.016357      0.007172     -0.073019
Li	      4.06734      2.07942      6.21400        -0.014714     -0.017963     -0.067774
Li	      2.13448      6.13397      4.22640        -0.029827      0.039539     -0.019262
Li	      4.14141      6.06963      6.27573        -0.007702     -0.014155     -0.122504
Mn	      2.15305      8.13584      6.47452         0.080184      0.026025      0.003788
V	      4.16647      4.15939      0.12500        -0.028005      0.011259      0.045570
Cr	      8.16930      4.12951      8.56558         0.305724     -0.157155      0.060325
Cr	      6.10571      4.11819      6.28557        -0.033460     -0.019601     -0.076442
Cr	      6.22107      8.10935      6.39009         0.025117      0.017013     -0.211106
Cu	      4.12031      8.15123      4.30757         0.006984      0.058587     -0.000639
Cu	      8.23579      8.12720      8.50452         0.023020     -0.026270     -0.045849
Ni	      4.09923      0.01894      4.25764        -0.046761     -0.100165      0.127684
Ni	      6.13384      6.13065      8.49420        -0.074817      0.037390      0.038933
O	      4.23280      5.99506      8.63949        -0.577468     -0.418470     -0.130408
O	      2.04846      2.13883      1.97709        -0.014605      0.034993      0.128336
O	      4.00542      4.20180      1.97387        -0.068495     -0.057451      0.184263
O	      4.09977      1.88637      4.20978         0.094968      0.288364     -0.089845
O	      6.26568      4.07601      4.33160        -0.172132     -0.044079     -0.023037
O	      6.28582      2.02810      6.31958         0.099329     -0.047093      0.058321
O	      8.21803      4.16590      6.51447        -0.056222     -0.023634      0.039480
O	      1.90133      4.07297      4.22783         0.104200      0.033825      0.056124
O	      4.09879      6.32330      4.23900        -0.030222     -0.158047      0.033082
O	      4.10852      4.05702      6.16830        -0.017593      0.015436      0.054261
O	      6.12760      6.11290      6.44178        -0.001801      0.029808     -0.258571
O	      6.13186      4.11176      8.30863        -0.192175     -0.243505     -0.069522
O	      8.04616      6.12667      8.60494         0.437456      0.355362      0.025773
O	      1.97150      6.03421      6.43658        -0.098509      0.015569      0.009433
O	      4.18664      8.29332      6.58859         0.048963      0.047415      0.152614
O	      6.28264      8.10638      8.39251         0.244961      0.352133      0.106496
O	      6.10027      5.99715     10.89929         0.045464      0.035415     -0.010352
O	      8.39323      8.24078     10.91810        -0.043895     -0.061249      0.011901
