# total energy = -216.38814931 eV
 
CRYSTAL
PRIMVEC
0.053151 6.087790 6.572724 
6.129605 0.032923 6.591739 
4.082851 4.068243 0.026266 
PRIMCOORD
36 1
Li	      2.08761      2.02260      0.12390        -0.032378     -0.030408     -0.013116
Li	      2.00362      0.08803      2.21698         0.003040     -0.068273      0.019117
Li	      6.05581      2.05238      4.40114         0.024657      0.016446     -0.007810
Li	      2.05058      4.01557      2.27372         0.026408      0.001354      0.082819
Li	      2.06826      2.05557      4.36334        -0.014884      0.004966      0.014929
Li	      8.10569      6.11612      6.56211         0.033555      0.058667     -0.002215
Li	      0.08429      4.06673      4.38071         0.025370     -0.031440     -0.030561
Li	      4.13083      6.18847      6.59529        -0.023646     -0.041737      0.005785
Li	      6.19621      6.05370      8.73049         0.018333      0.060240     -0.005005
Mn	      0.08660      2.01133      2.13742        -0.123717     -0.060328      0.159193
V	      8.05332      8.24132      8.87579        -0.127668     -0.128340      0.073718
Cr	      6.17523      6.11543     13.11366        -0.158549      0.138383      0.003018
Cr	      6.14769      4.14070      6.61580         0.015977     -0.158975     -0.019071
Cr	      2.09141      6.05148      4.37908         0.131405      0.118365     -0.197924
Cu	      4.08073      0.07193      4.43224        -0.093536      0.057748     -0.074183
Cu	      4.12832      4.03660      4.35483         0.094374      0.044971      0.066230
Cu	      6.12160      8.04578      6.51787         0.076333      0.013003     -0.033327
Ni	      4.02445      2.06382      2.20893         0.086672      0.001711      0.057438
O	      6.13744      6.10826      6.69360        -0.044813      0.078348     -0.071614
O	      4.14606      8.16756      6.72892        -0.027403     -0.172838     -0.101262
O	      1.95880      2.02392      2.14492        -0.038543     -0.013085     -0.033970
O	      4.08320      4.14924      1.97790        -0.008745      0.093978     -0.081217
O	      4.08520      2.15914      4.24208        -0.007346     -0.356930      0.104169
O	      6.00858      4.05850      4.61600         0.196146      0.006138      0.004535
O	      6.12933      2.07824      6.79027         0.012240      0.064394     -0.076564
O	      8.15969      4.10852      6.38523        -0.056925     -0.012808      0.240823
O	      2.22804      4.09109      4.30837        -0.358071     -0.051054     -0.011665
O	      4.10563      5.97833      4.16769         0.007485      0.216045     -0.053578
O	      4.14616      4.11313      6.97543        -0.040865      0.039537     -0.015640
O	      6.11716      3.99623      8.68525         0.023927      0.019313      0.004653
O	      8.28689      6.24034      8.92508         0.049907     -0.002159     -0.000414
O	      2.05069      5.98997      6.38898         0.110679      0.023198      0.132394
O	      4.13320      6.01669      8.99382         0.016937      0.026112     -0.105979
O	      6.29079      8.14433      8.89287         0.118135      0.022167     -0.064654
O	      6.24361      6.10497     11.11553         0.060960      0.002358     -0.046224
O	      8.28842      8.09139     10.74954         0.024552      0.020933      0.077171
