# total energy = -215.22868938 eV
 
CRYSTAL
PRIMVEC
0.025507 6.401094 6.253168 
6.155861 0.031733 6.247387 
4.124403 4.284974 -0.000171 
PRIMCOORD
36 1
Li	      2.07250      2.13412      0.03898        -0.030382     -0.138941      0.069214
Li	      4.00431      2.11295      2.09543        -0.035629     -0.010147      0.013753
Li	      4.14956      6.40671     10.38546        -0.014118      0.014746     -0.016230
Li	      1.96586      2.28073      4.19987         0.063576     -0.036853     -0.041979
Li	      4.05670      4.41128      4.24786         0.082142     -0.001883     -0.061940
Li	      6.11565      4.43799      6.29715         0.121074      0.058783     -0.063332
Li	      4.22257      8.43494      4.15002        -0.035165      0.021015      0.010137
Li	      2.10525      4.20389      6.08574        -0.087534      0.062507      0.039615
Li	      4.21649      6.33829      6.15048         0.002970      0.024427      0.050343
Mn	      6.18843     10.66303      8.34467        -0.042429      0.099347      0.054181
V	      6.15355      2.26322      4.22083        -0.028870      0.066482     -0.074120
Cr	      4.15056     10.48813      6.23732        -0.068283     -0.139799      0.286350
Cr	      4.09208      2.22990      6.22962         0.070770     -0.016721     -0.236064
Cr	      6.17069      6.46167      8.31298        -0.074657      0.160290      0.150539
Cu	      4.16321      6.46251      2.18749        -0.052496     -0.078296     -0.060055
Cu	      2.13170      4.26549      2.12174        -0.132943     -0.024018     -0.214667
Cu	      2.13402      6.34622      4.19615         0.082284      0.009355      0.178242
Cu	      4.17964      4.35725      8.22535         0.125527      0.150790      0.093528
O	      6.40377      4.49686      8.32313        -0.210103      0.003568      0.088003
O	      4.11088      8.72371      6.16608        -0.158634      0.078261     -0.024045
O	      8.03201      8.47314     10.39694         0.086311      0.012336     -0.009760
O	      1.95559      1.87939      2.15141         0.205165     -0.036923      0.033045
O	      4.03278      4.15421      1.96699        -0.009718     -0.262619     -0.172641
O	      4.28316      2.06515      4.26058        -0.128148     -0.022224     -0.026665
O	      6.19610      4.06770      4.11448         0.002674      0.055614      0.135083
O	      6.13232      2.08259      6.13831         0.082112     -0.035317     -0.072711
O	      8.37450      4.43744      6.38497        -0.047597     -0.037055     -0.023671
O	      2.11872      4.35394      4.01102        -0.040013     -0.026019      0.000737
O	      4.06441      6.43940      4.12287         0.058456     -0.007563      0.211076
O	      4.13291      4.21193      6.25325        -0.017358      0.060495     -0.117691
O	      6.24315      6.47636      6.33788         0.027540      0.077129     -0.160986
O	      8.26145      6.71185      8.20548        -0.079115      0.014826      0.037148
O	      1.89386      6.42009      6.41640        -0.037617     -0.023786     -0.183907
O	      4.17927      6.29078      8.31923         0.273170      0.116773      0.004632
O	      6.04534      8.56183      8.53584         0.048357     -0.166382      0.108043
O	      6.24113      6.53806     10.43281        -0.001316     -0.022197     -0.003205
