# total energy = -214.12002476 eV
 
CRYSTAL
PRIMVEC
0.018817 6.178811 6.189296 
6.248231 -0.005018 6.213050 
4.168462 4.137763 -0.006510 
PRIMCOORD
36 1
Li	      2.21246      8.15151      6.24548        -0.009432      0.007134      0.032419
Li	      2.17600      6.18495      8.12084         0.022862      0.012051      0.076434
Li	      4.12411      8.17252      8.17654        -0.009256     -0.040427      0.048007
Li	      2.05063      2.10748      4.13792        -0.012776      0.035774      0.009340
Li	      4.13708      4.15855      4.18290         0.024975     -0.018634      0.043037
Li	      6.24706      4.18767      6.20700        -0.007076      0.020562      0.015183
Li	      6.18629      8.29400      6.21601         0.021060     -0.080215     -0.010646
Li	      4.17643      6.25284      6.21936         0.068426      0.000269      0.016479
Li	      6.15532      6.18768      8.17194         0.001047      0.007355     -0.057845
V	      6.22843      2.19066      4.12072         0.008803      0.112755     -0.092183
Cr	      0.08537      2.02551      2.06737        -0.194588      0.201135      0.081418
Cr	      8.23188      6.23173      6.19426        -0.347672      0.178855     -0.133690
Cr	      4.16930      4.16589      8.23887         0.076811     -0.017068      0.144470
Co	      4.21854     10.28209      6.18911         0.638687     -0.555705      0.359562
Co	      4.19857      8.25762      4.14976         0.080380     -0.180341     -0.097023
Cu	      2.11594      4.08588      2.06581        -0.241239     -0.127913      0.054175
Ni	      4.19082      6.20158     10.29445        -0.039674      0.072032     -0.080875
Ni	      2.12760      6.15426      4.21121         0.084442     -0.059658     -0.205109
O	      2.00077      2.12688      2.05565         0.161862     -0.193781     -0.027002
O	      4.12159      4.18157      1.94527         0.402455      0.033849     -0.087577
O	      4.28138      2.08019      4.20045        -0.045629     -0.055014      0.145709
O	      6.27654      3.95770      4.20256        -0.030470      0.064159      0.003338
O	      6.16089      1.96059      6.19529        -0.136963      0.607820     -0.071441
O	      8.45824      4.25365      6.21047        -0.290456      0.136997     -0.026169
O	      1.93574      4.15519      4.03806        -0.044888     -0.025392      0.098635
O	      4.15452      6.30540      4.06316         0.063216      0.068327      0.043982
O	      4.21611      3.96734      6.27586        -0.033211     -0.046744     -0.140833
O	      6.43604      6.14042      6.17372         0.255131      0.015529     -0.004837
O	      6.22357      4.05545      8.39179        -0.160634     -0.022155      0.029919
O	      8.42647      6.21329      8.20673         0.007641      0.099545     -0.016285
O	      1.96011      6.16581      6.18607        -0.001308      0.172952      0.088208
O	      4.19135      8.35963      6.05417        -0.253201     -0.478948     -0.152290
O	      4.18358      6.10972      8.26719        -0.002694      0.012993     -0.053511
O	      6.35640      8.17180      8.43843        -0.037031      0.042542     -0.039000
O	      6.27419      6.16692     10.47804        -0.054752     -0.055571     -0.039981
O	      8.35853      8.24780     10.27527         0.035156      0.054930      0.045985
