# total energy = -214.71315425 eV
 
CRYSTAL
PRIMVEC
0.049377 6.170647 6.199470 
6.247508 0.040422 6.208016 
4.190603 4.144922 0.001548 
PRIMCOORD
36 1
Li	     10.32950      4.15298      6.24473        -0.054192      0.039281     -0.019097
Li	      8.36812      2.25757      6.28970         0.008842      0.002784      0.011907
Li	      2.09960      0.02498      2.09022        -0.066591      0.050082      0.092843
Li	      8.36765      4.14690      4.18413        -0.020673     -0.079644      0.052870
Li	      6.32316      2.16796      8.20249         0.008653     -0.043919      0.019336
Li	      2.09443      4.04260      1.99677         0.004740      0.009266      0.009288
Li	      6.23529      6.14448      4.13831        -0.099398     -0.096201     -0.038541
Li	      6.25374      4.17486     10.32246         0.010349      0.015721     -0.049773
Li	      4.29854      6.25043      6.24895         0.024965     -0.029919     -0.028978
V	      2.20610      6.14986      4.28597        -0.195074      0.081800     -0.310662
Cr	      4.02757      2.04636      2.04003        -0.145414      0.068315     -0.064570
Cr	      6.28663      2.11698      4.15299         0.068406     -0.090379     -0.022602
Cr	      8.36805      6.19012      6.22916         0.028877     -0.085642     -0.027702
Co	      4.18884      4.14577      4.09780         0.118170     -0.084518     -0.006867
Co	      4.20675      4.17371      8.25448         0.129795     -0.021595      0.121080
Ni	      6.29507      4.15601      6.21524        -0.003404     -0.030953     -0.005749
Ni	      6.24588      8.23560      6.22455         0.039906      0.179124     -0.014266
Ni	      6.29797      6.17451      8.25314         0.006773     -0.057685      0.083608
O	      2.23596      2.03456      2.09759         0.124450      0.034363     -0.058554
O	      4.22161      3.92489      2.21365        -0.028346      0.039589     -0.023292
O	      4.25068      2.18677      4.15093        -0.008062      0.023942     -0.030212
O	      6.09389      4.09092      4.16473         0.021687      0.043301     -0.086743
O	      6.19923      2.08136      6.13537        -0.016216     -0.049418     -0.054240
O	      8.32887      4.23383      6.19223         0.110549      0.094547     -0.043546
O	      2.21512      4.29812      4.07574        -0.123950     -0.070472      0.084559
O	      4.06011      6.10889      4.07072         0.006086     -0.068154      0.030540
O	      4.12554      4.10703      6.21874         0.069860      0.048274      0.001225
O	      6.35647      6.23382      6.18365         0.042247     -0.070403     -0.106564
O	      6.11153      4.18117      8.24719        -0.105742     -0.165699      0.083051
O	      8.37267      6.38657      8.25434         0.104118      0.100016     -0.032209
O	      2.15051      6.21679      6.01877         0.054918      0.060598      0.069250
O	      4.25596      8.26196      6.33241        -0.213897      0.044091      0.189946
O	      4.24229      6.23414      8.33565        -0.081559      0.032338      0.040583
O	      6.35655      8.25759      8.31273         0.033664      0.132771      0.024250
O	      6.52779      6.24665     10.30374         0.149690      0.040118      0.129695
O	      8.37177      8.17205     10.19372        -0.004228     -0.095722     -0.019863
