# total energy = -215.78825894 eV
 
CRYSTAL
PRIMVEC
0.045238 6.166400 6.137142 
6.249837 0.020073 6.161169 
4.189973 4.149515 -0.009492 
PRIMCOORD
36 1
Li	      8.34922      2.11676      6.16684         0.023350      0.008600     -0.026614
Li	      2.09280      0.10898      2.05147         0.079236     -0.022752      0.074684
Li	      8.25766      4.15434      4.19930        -0.085663     -0.053318     -0.037072
Li	      2.10080      2.06590      4.09396        -0.021722     -0.027416      0.030214
Li	      4.22911      2.08062      6.08615        -0.044554      0.054228     -0.032027
Li	      6.24972      4.07792      6.10562        -0.079775     -0.033054     -0.075106
Li	      4.24372      8.19159      4.16710        -0.000823     -0.015838      0.007209
Li	      2.12844      4.15776      6.07288         0.029306     -0.032991     -0.002032
Li	      4.14107      6.19123      6.14085        -0.004070     -0.001501     -0.026821
V	      6.24090      6.12484      8.04927         0.153103      0.219335      0.108977
Cr	      4.24174     10.29291      6.13228         0.124297     -0.189227     -0.262079
Cr	      2.16413      6.18925      4.10788         0.099972     -0.037283     -0.082869
Cr	      4.13544      4.16054      8.13924         0.063740     -0.047278      0.474920
Co	      6.24616      2.09300      4.12474        -0.292398      0.115998      0.149154
Co	      0.05765      2.07585      2.02784         0.494247      0.241854     -0.375448
Co	      4.24070      4.11917      4.17166         0.191430      0.147716      0.128650
Cu	      2.14441      4.05978      2.01115        -0.035135      0.011824      0.134212
Ni	      4.13223      2.06633      2.04102        -0.161207      0.136543      0.162847
O	      1.97216      2.11462      2.06637         0.995733      0.065332     -0.044600
O	      4.32092      4.30622      1.96058         0.008336     -0.524010      0.356037
O	      4.28992      2.18951      4.05626         0.079175      0.105202     -0.021482
O	      6.12902      3.99714      4.12962         0.144416     -0.005142      0.023841
O	      6.27002      1.96036      6.15868        -0.069611      0.023196     -0.527902
O	      8.54178      4.17157      6.21067        -0.028106      0.051503     -0.094935
O	      2.30776      4.17507      4.01098        -0.165824      0.019997     -0.041365
O	      4.18391      6.12988      3.95670        -0.424879     -0.327653      0.830864
O	      4.15594      4.16418      6.19143        -0.139917     -0.079560     -0.913284
O	      6.32236      6.19706      6.32422        -0.011644     -0.035802     -0.037947
O	      6.13521      4.11755      8.24224        -0.329840      0.465093     -0.004549
O	      8.39457      6.25678      8.23054        -0.866054     -0.073669      0.146988
O	      1.99290      6.17881      6.05507        -0.055041      0.041798     -0.040612
O	      4.24257      8.38894      6.18081         0.015180      0.138227      0.000951
O	      4.30292      6.17064      8.22642         0.044834     -0.255414     -0.006701
O	      6.29002      8.13983      8.32812         0.235933     -0.063191     -0.062880
O	      6.36908      6.24855     10.21980         0.049875     -0.001884      0.241374
O	      8.23883      8.21705     10.17858        -0.015901     -0.019460     -0.154596
