# total energy = -92.87702647 eV
 
CRYSTAL
PRIMVEC
2.015659 4.186363 2.086549 
4.102049 -2.121841 -2.100222 
0.001218 4.152848 -4.107041 
PRIMCOORD
16 1
Li	      2.10288      2.00365     -0.11433         0.001276     -0.007669      0.000000
Li	      4.03509      4.18791     -0.00058        -0.007963     -0.006374     -0.013245
Li	      4.02229      2.17332     -1.97772         0.002889      0.011776      0.006624
Li	      2.08981      4.05868     -2.06541        -0.005823      0.000632      0.029634
Mn	      0.02238      0.00947     -0.01844         0.001576      0.035031     -0.060100
Mn	      0.02015      2.07347     -2.01804         0.004231     -0.026987      0.055847
Ni	      4.05891      6.22558     -2.03470        -0.037073     -0.008156      0.008147
Ni	      4.02739      4.14630     -4.12851        -0.001460     -0.062794     -0.087361
O	      4.18383      4.16985     -2.10192         0.046596     -0.105855      0.124994
O	      4.10352      1.98064     -4.24887         0.114142     -0.085914     -0.015300
O	      4.19259      2.01083     -0.00004         0.041518      0.122426     -0.095397
O	      4.11470     -0.17851     -2.15699        -0.003085     -0.018426     -0.085636
O	      2.00118      4.33211      0.15035         0.010773      0.025233      0.004539
O	      1.91260      2.08332     -2.06800        -0.033764     -0.001906      0.110133
O	      2.00101      6.38002     -1.90781        -0.004440      0.017811      0.016738
O	      1.96689      4.11226     -4.10984        -0.129396      0.111171      0.000383
