# total energy = -136.70967561 eV
 
CRYSTAL
PRIMVEC
2.080220 2.080367 3.951694 
-4.148467 8.309750 -0.000125 
-2.080146 -2.080453 3.951682 
PRIMCOORD
24 1
Li	     -3.11928      5.19735      4.94109        -0.007417      0.014289     -0.000757
Li	     -1.03519      3.11751      4.93979        -0.004569      0.003731     -0.000044
Li	     -3.12035      5.19830      0.98932        -0.002204      0.011733     -0.004014
Li	     -5.18465      7.26788      4.93807         0.007604     -0.015296      0.003716
Li	     -3.10321      9.34502      4.93814         0.001095     -0.006059      0.006415
Li	     -1.03516      3.11833      0.98813        -0.005536      0.001926      0.001473
Mn	     -1.05860      1.06015      6.91479         0.020657     -0.024864      0.001059
Mn	     -3.09533      3.09704      2.96501        -0.020402      0.025035     -0.002324
Mn	     -3.11261      7.27234      6.91556         0.002743     -0.001182     -0.000010
Ni	     -1.02331      1.02503      2.96252        -0.005609      0.001813      0.005169
Ni	     -1.05043      5.21270      2.96536         0.007929     -0.004453     -0.005091
Ni	     -3.11249      7.27254      2.96368         0.004932      0.000916      0.000386
O	     -3.09877      5.27527      6.91680         0.077804      0.090553     -0.004530
O	     -1.03629      3.11919      6.91586        -0.003902     -0.004568     -0.001655
O	     -3.19553      5.18035      2.96510        -0.092098     -0.116245     -0.003194
O	     -3.02939      9.36512      2.96260         0.094336      0.115678      0.002503
O	     -5.20567      7.18914      2.96254        -0.075944     -0.086849      0.003243
O	     -1.03612      3.11947      2.96409        -0.003894     -0.004382     -0.000966
O	     -3.11259      7.27127      5.01328         0.003854      0.005051      0.092400
O	     -1.03471      5.19750      5.01842        -0.010229      0.007625      0.101403
O	     -3.11363      7.27242      0.91438         0.006357      0.002004     -0.092130
O	     -1.03833      1.03998      5.01613         0.007620     -0.011822      0.112453
O	     -1.03807      1.03975      0.90981         0.006435     -0.010673     -0.107548
O	     -3.11530      3.11755      4.86354        -0.009562      0.006040     -0.107957
