# total energy = -216.00383581 eV
 
CRYSTAL
PRIMVEC
0.010372 6.200040 6.339661 
6.069332 0.056503 6.291468 
4.055560 4.111067 0.028904 
PRIMCOORD
36 1
Li	      8.00849      2.16195      6.37160         0.009860     -0.014483     -0.034755
Li	      2.00127      0.06369      2.10341        -0.003032     -0.040573     -0.122464
Li	      8.02641      4.19201      4.35042         0.009621     -0.076685      0.032774
Li	      6.04836      2.14460      4.29487         0.077811     -0.078417      0.030603
Li	      0.07942      1.99711      2.01204        -0.000988     -0.036404      0.047132
Li	      2.07753      4.06731      2.04137        -0.030270      0.035988      0.022570
Li	      8.13223      6.15588      6.31137        -0.035561      0.046013      0.039640
Li	      2.07023      4.16519      6.30443         0.025258      0.023135     -0.012036
Li	      6.11939      6.25241      8.37026         0.028791      0.016964      0.009144
V	      6.11632      4.22410     10.46294         0.044804     -0.020235      0.014204
Cr	      6.03641      0.15156      6.29407         0.033402     -0.079972     -0.058905
Cr	      4.08509      8.25512      8.44145         0.207527     -0.100585     -0.039752
Cr	      7.99695      8.27442      8.48262        -0.024818     -0.007716      0.021503
Co	      6.09534      4.12070      6.31172         0.104552     -0.079967      0.070498
Co	      8.09448      6.29316     10.53586        -0.009127      0.028431      0.031143
Co	      4.04299      6.18050      6.34260        -0.091337      0.033336      0.008292
Cu	      2.08855      2.00356      4.17901        -0.014790      0.039076      0.036535
Cu	      4.04706      4.09374      4.17698        -0.067623      0.019153     -0.066216
O	      5.97377      6.05317      6.24127        -0.029594     -0.001464     -0.033666
O	      2.12938      2.03174      2.23549        -0.166533     -0.008234     -0.071419
O	      4.08350      4.02667      1.96144         0.011900     -0.010039     -0.043420
O	      4.07896      2.13252      4.05959         0.026412     -0.104791     -0.051805
O	      5.96769      4.07493      4.45108        -0.029981     -0.070895     -0.036492
O	      6.04853      2.13091      6.36234         0.004844      0.089756     -0.047589
O	      8.05720      4.17991      6.32768        -0.067866     -0.024140      0.052782
O	      1.99585      4.30953      4.19788         0.038056      0.085554      0.007089
O	      3.96639      6.22501      4.38864        -0.013172      0.068200      0.084396
O	      4.14613      4.25179      6.48507         0.000903      0.052798      0.091792
O	      6.00141      4.19491      8.59369        -0.066605      0.000416     -0.118642
O	      8.12027      6.42303      8.60210        -0.002839      0.025691     -0.023493
O	      2.04772      6.20203      6.17109         0.058250      0.047956      0.030960
O	      4.06979      8.20187      6.23271        -0.029799     -0.007450      0.125926
O	      4.07753      6.17192      8.27614         0.001084      0.019396     -0.041216
O	      6.14476      8.28633      8.40400         0.029757     -0.003995      0.010760
O	      6.15421      6.16403     10.59936        -0.001402      0.071729      0.021190
O	      8.17041      8.24948     10.47285        -0.027494      0.062454      0.012937
