# total energy = -215.41688594 eV
 
CRYSTAL
PRIMVEC
0.038354 6.049929 6.253722 
6.352838 0.011035 6.282874 
4.240339 4.058342 0.001359 
PRIMCOORD
36 1
Li	      2.15964      8.02941      6.27481         0.121450      0.046341     -0.067318
Li	      4.22353      2.06683      2.09186         0.049061     -0.008560     -0.156126
Li	      6.41796      8.07715     10.44214         0.016129     -0.045859      0.050886
Li	      2.12807      2.08972      4.15547        -0.093806      0.021549      0.020798
Li	      4.11370      3.98180      4.20995        -0.023483      0.009402      0.003220
Li	      4.24315      2.06884      6.26742         0.061454     -0.120929     -0.046064
Li	      0.08379      4.05102      4.18742        -0.012143     -0.060998      0.152012
Li	      2.19088      6.04192      4.16509         0.063015      0.022699      0.059888
Li	      2.18272      4.03997      6.22423        -0.138331     -0.006700      0.017584
V	      8.50448      4.10776      4.33216         0.204375     -0.315104      0.211206
Cr	      6.36691      4.07320      2.12804        -0.067591     -0.010521     -0.082437
Cr	      6.30614      3.99850      6.22687         0.154607     -0.058323     -0.042828
Cr	      6.37114      6.11151      8.35351        -0.155804      0.005525      0.012952
Co	      0.17061      5.99346      6.25273        -0.203895      0.581316     -0.338533
Co	      2.18519      3.99057      2.20696        -0.171129      0.098155      0.150745
Co	      4.24940      6.10803      6.02513         0.034870      0.053264      1.393201
Ni	      4.24212      6.06823      2.12403         0.079566      0.104822      0.087309
Ni	      8.47996      8.07346      8.35776         0.030747      0.040723      0.077297
O	      2.05030      2.05856      2.10014         0.123457     -0.038240     -0.023527
O	      4.32835      4.06069      2.06717         0.411574     -0.233437     -0.430800
O	      4.22884      1.82903      4.19188        -0.032804      0.065280      0.018411
O	      6.52530      4.05417      4.19248        -0.011898      0.036598      0.012116
O	      6.32864      1.93339      6.31017        -0.054816      0.027945      0.197970
O	      8.41360      4.03557      6.20459        -0.190710      0.071841     -0.101066
O	      2.14076      4.04654      4.01939         0.038594      0.007789     -0.139410
O	      4.22518      6.09700      4.24407        -0.071636     -0.191300     -0.305766
O	      4.34226      4.08028      6.27384        -0.032337      0.731371     -0.308887
O	      6.26865      6.01386      6.36368        -0.395841     -0.034597     -0.362364
O	      6.34752      4.07580      8.23377        -0.103639      0.052593     -0.027740
O	      8.38908      5.98107      8.38715        -0.061162     -0.158842     -0.109664
O	      2.21196      6.07069      6.38866         0.505903     -0.011341     -0.221813
O	      4.29720      8.21531      6.23842         0.079280     -0.853197      0.156602
O	      4.26741      6.08647      8.42764        -0.027476      0.000119     -0.087037
O	      6.45340      8.10168      8.37255        -0.044228      0.014732     -0.007250
O	      6.22639      6.08156     10.41155        -0.028345     -0.061778      0.145270
O	      8.52468      8.29218     10.38118        -0.053009      0.217661      0.091165
