# total energy = -222.43891426 eV
 
CRYSTAL
PRIMVEC
0.066116 6.192288 6.095415 
6.318638 0.020646 6.141461 
4.206446 4.152880 0.019749 
PRIMCOORD
36 1
Li	      8.35708      2.24708      6.04271        -0.017156      0.024999      0.040546
Li	      8.63692     10.14706     10.25705         0.063748     -0.051646      0.011033
Li	      6.47691      8.20843     10.21581         0.019918      0.013585      0.002381
Li	      8.30412      4.15279      8.13324        -0.057629     -0.011465      0.023233
Li	      2.12732      2.17478      4.09468        -0.022387      0.013059     -0.009184
Li	      6.43516      4.13903      6.16126        -0.006823     -0.008732     -0.038580
Li	      6.24024      4.20063     10.12155        -0.029302     -0.006222      0.004740
Li	      8.54234      8.25817      8.30910         0.003882     -0.034403     -0.030042
Li	      6.38501      6.13100      8.19453         0.039201      0.001317      0.011689
V	      6.36531      4.19173      2.20738         0.018046     -0.087934      0.283499
Cr	      4.21072      2.09914      2.08984         0.091438     -0.023226     -0.097248
Cr	      8.40898      6.20485      6.14108         0.092979     -0.015339      0.054431
Cr	      8.41414      6.27462     10.19728        -0.112680      0.046980     -0.075299
Co	      6.29073      0.03183      6.11377        -0.140527      0.012011     -0.151873
Co	      6.30178      2.14556      8.15708        -0.005358      0.189860     -0.024079
Co	      4.17781      4.15901      4.07847        -0.052936     -0.035691      0.157199
Co	      2.15212      4.13962      6.10556         0.023252     -0.053102     -0.003125
Co	      4.35112      6.19854      6.08656         0.165485     -0.035001      0.040911
O	      2.18312      1.95713      1.98620         0.162285     -0.071111      0.062131
O	      4.30246      4.19757      2.06831         0.077561      0.024764      0.000554
O	      4.20107      2.23808      4.08753        -0.022607      0.127399      0.003465
O	      6.18158      4.13453      4.00356        -0.051720      0.055798     -0.258071
O	      6.22491      1.97991      6.21594        -0.047620     -0.026979      0.071402
O	      8.57786      4.24129      6.11881         0.108890      0.026545      0.013990
O	      2.26762      4.19868      4.16979         0.125942      0.011581      0.101541
O	      4.16124      6.12541      4.04179         0.000525     -0.060598     -0.031692
O	      4.10664      4.13130      5.99605        -0.115619     -0.003909     -0.134779
O	      6.38838      6.34342      6.14234        -0.104222      0.115223     -0.025766
O	      6.36356      3.97708      8.11770        -0.044032     -0.175018     -0.014342
O	      8.44848      6.18683      8.17823        -0.047904      0.012400     -0.027912
O	      2.06973      6.09400      6.15037        -0.010449     -0.041266      0.027597
O	      4.41313      8.37106      6.17712         0.095527     -0.000283      0.050547
O	      4.17045      6.29596      8.14191        -0.169635      0.132254     -0.034504
O	      6.29089      8.39127      8.07775        -0.092471      0.045480     -0.080502
O	      6.44292      6.20320     10.31960         0.036583     -0.020431      0.055591
O	      8.45636      8.20724     10.23840         0.025813     -0.090898      0.020520
