# total energy = -214.52448490 eV
 
CRYSTAL
PRIMVEC
0.010738 6.263705 6.256284 
6.119561 0.028598 6.238139 
4.096861 4.180855 0.002182 
PRIMCOORD
36 1
Li	      4.06501      4.25620      0.18716         0.035902     -0.003910      0.079724
Li	      6.01586      4.17391      2.09785        -0.012903      0.048513     -0.000327
Li	      4.15597      2.25220      2.03143        -0.028738      0.114730     -0.009264
Li	      6.12526      2.09787      4.20761         0.005406     -0.055604     -0.050145
Li	      6.14748      2.02636      8.19164         0.090526     -0.132608      0.042849
Li	      2.13053      4.14573      2.00931         0.098354     -0.076582      0.015299
Li	      6.16967      4.08783      6.28625        -0.022333      0.036338      0.060864
Li	      6.11746      8.39674      6.33752        -0.005437      0.013784      0.023040
Li	      6.17198      6.30233      8.33333        -0.064688      0.015934     -0.051049
V	      4.15926      6.28154      6.32717         0.136962     -0.055226      0.068678
Cr	      8.15688      4.23031      4.17177         0.021193      0.000563     -0.126056
Cr	     10.21712      8.35720     10.38029         0.084352      0.031831      0.014943
Cr	      8.14004      8.33806      8.28672        -0.192561      0.025526     -0.073667
Fe	      8.08562      6.21979     10.37411         0.135092      0.016087      0.020174
Co	      2.04831      2.08937      4.09610        -0.007346      0.001962      0.009324
Cu	      8.09735      2.17268      6.36068         0.052166     -0.024301      0.254766
Ni	      8.25512      6.24266      6.28833        -0.164297      0.091348      0.055677
Ni	      4.13341      4.13445      4.06366        -0.018298      0.003066      0.211954
O	      6.16760      2.12025      6.19893         0.020581      0.004103     -0.051765
O	      2.06701      2.12594      2.31977        -0.008274     -0.029988     -0.309066
O	      4.10145      4.17499      2.13819        -0.025203      0.064936     -0.324596
O	      3.96313      2.05803      4.24562        -0.023390     -0.105462     -0.112593
O	      6.17546      4.39605      4.15803         0.136463      0.077094      0.044387
O	      8.16692      4.18300      6.12902        -0.000316     -0.058606      0.041609
O	      2.00727      4.16776      4.17354        -0.101629     -0.083402      0.008510
O	      4.14337      6.28679      4.24938        -0.026238      0.129851     -0.090662
O	      4.07898      4.24949      6.27631         0.022681      0.035319      0.156828
O	      6.00915      6.31201      6.12508         0.062305      0.008585      0.084608
O	      5.96623      4.22088      8.41117         0.048337     -0.050176     -0.078745
O	      8.17475      6.40133      8.37886        -0.013451     -0.000820     -0.029356
O	      2.22149      6.32388      6.09203        -0.115731      0.018173      0.019993
O	      4.02329      8.23891      6.19857         0.008328      0.106805     -0.095018
O	      4.11446      6.18385      8.27332        -0.040372     -0.167922      0.092196
O	      6.30733      8.38804      8.33560         0.062991     -0.041700      0.040793
O	      6.13070      6.17720     10.40886        -0.109642      0.023943     -0.026954
O	      8.20744      8.39285     10.27042        -0.040793      0.017817      0.083047
