# total energy = -215.83600630 eV
 
CRYSTAL
PRIMVEC
0.019654 6.176884 6.323710 
6.163912 0.004113 6.340171 
4.107714 4.127116 0.004477 
PRIMCOORD
36 1
Li	      2.05543      1.99078      0.15726         0.021913     -0.009339      0.080722
Li	      2.10505      0.01986      2.15302         0.013037      0.014185      0.042543
Li	      4.03081      2.04288      2.18033        -0.002143     -0.033929      0.010902
Li	      6.12768      8.28715     10.37696        -0.023656     -0.003858     -0.057087
Li	      2.02458      4.05659      2.23709         0.004915      0.034566      0.054983
Li	      4.13239      4.03194      4.21130         0.012101      0.022020     -0.002830
Li	      4.10517      2.05675      6.28712         0.022057     -0.039261     -0.064027
Li	      6.17529      4.15414     10.50777         0.010874      0.025526      0.012094
Li	      6.16821      6.21000      8.39329         0.048988      0.018914      0.003159
V	     10.11169      4.12251      6.41527         0.057307      0.131685      0.101288
Cr	      0.04746      2.08654      2.15021         0.115579     -0.173507     -0.082638
Cr	      6.16494      4.10692      6.31361         0.184387     -0.096784     -0.064465
Cr	      2.11261      4.10754      6.35884        -0.031547      0.067542     -0.075843
Fe	      8.23112      6.19411     10.53602        -0.084595      0.039404      0.088863
Co	      4.14788      6.18637     10.45183        -0.252367      0.135255      0.031096
Cu	      4.11882      6.23152      6.37674        -0.147118      0.087370     -0.102098
Cu	      4.10760      4.14281      8.43541        -0.019073     -0.162983      0.018585
Ni	      2.09706      2.08297      4.17374        -0.355457     -0.042582     -0.122261
O	      4.13697      6.12444      8.35142         0.042452      0.090414      0.119507
O	      1.98864      2.06730      2.15047        -0.113930      0.015473     -0.000610
O	      4.09972      4.19072      1.90699         0.020366      0.113145     -0.051595
O	      4.07046      1.86840      4.17786         0.617385     -0.134487      0.092677
O	      6.27851      4.11503      4.32700        -0.088369     -0.127807      0.079004
O	      6.17671      1.99688      6.46155        -0.028094      0.020804      0.072347
O	      8.29143      4.10344      6.32968        -0.044219      0.026585     -0.021426
O	      2.08652      4.18878      4.32098        -0.003597     -0.067542      0.107156
O	      4.06604      6.22368      4.23712         0.057008     -0.025032     -0.071591
O	      4.16552      3.99513      6.38242        -0.068348     -0.086574     -0.136481
O	      6.11333      6.15273      6.28976         0.085103      0.083168      0.091238
O	      6.15951      4.07597      8.32649        -0.022186     -0.039276     -0.053812
O	      8.27219      6.23037      8.59083         0.067214      0.007638     -0.145216
O	      2.01310      6.14954      6.24560        -0.025173     -0.064053     -0.024445
O	      4.19752      8.48369      6.37232         0.062158      0.055347     -0.087908
O	      6.25074      8.23731      8.31121        -0.127971      0.041295     -0.116255
O	      6.17669      6.26274     10.74567        -0.130088     -0.101256      0.224945
O	      8.23903      8.34675     10.44788         0.125090      0.177938      0.049479
