# total energy = -215.24983267 eV
 
CRYSTAL
PRIMVEC
0.021261 6.086810 6.215710 
6.223277 0.016320 6.220134 
4.165191 4.077861 -0.005204 
PRIMCOORD
36 1
Li	      2.14704      8.09680      6.26209         0.050900     -0.006500     -0.017295
Li	      4.17005      8.10083      8.19354         0.010813     -0.017848     -0.086956
Li	      6.26824      8.11796     10.32854        -0.015503      0.005933      0.039001
Li	      6.25621      2.04863      8.26028         0.013189     -0.046294     -0.011733
Li	      2.08904      3.99127      2.11111         0.016389     -0.145351      0.018540
Li	      2.08701      2.03730      4.12658         0.034833      0.006576      0.040795
Li	      6.17100      8.11545      6.26882        -0.010916     -0.050222     -0.020401
Li	      4.23016      6.17147      6.24293         0.084575      0.033702     -0.012479
Li	      6.24818      6.17733      8.26774        -0.065391      0.035518      0.000222
V	      4.12596      4.08684      4.07837        -0.066959     -0.019944      0.067583
Cr	      2.11137      6.13612      8.20514        -0.000829      0.118207     -0.091541
Cr	      8.30299      6.11934      6.26614        -0.084778      0.055490     -0.024142
Cr	      4.21223      8.10761      4.14739        -0.068032      0.002918      0.024365
Fe	      6.26027      4.06465      6.32546         0.039970     -0.009961     -0.170301
Co	      4.13573      0.02731      4.12326        -0.012190      0.034096     -0.110149
Ni	      4.15855      4.06419      0.02366        -0.062129      0.036614      0.045183
Ni	      8.27442      6.12897     10.34007        -0.077177      0.124052      0.075638
Ni	      8.31024      8.16214      8.28938         0.080275      0.095851     -0.121948
O	      2.09560      1.88227      2.08803        -0.002131     -0.217261     -0.017806
O	      4.23965      4.03524      2.14821         0.029414      0.051339      0.128412
O	      4.15205      2.12943      4.22405         0.019981     -0.029095      0.050671
O	      6.24758      4.08108      4.08090        -0.000011      0.009642     -0.041646
O	      6.15114      2.08552      6.22050        -0.069530     -0.026281      0.025471
O	      8.28843      4.11715      6.07281        -0.036888      0.030535      0.021603
O	      2.13324      4.08875      4.10587         0.002280     -0.094550     -0.011338
O	      4.12016      5.98526      4.16629         0.100058      0.022695     -0.061056
O	      4.23662      4.04454      6.13241        -0.114490     -0.070113     -0.002922
O	      6.31345      5.99146      6.23205         0.048481      0.191738     -0.007592
O	      6.19439      4.05629      8.30485         0.014873     -0.025900      0.251876
O	      8.28569      6.17217      8.26221         0.015975     -0.029109     -0.066828
O	      2.03491      6.11151      6.30152         0.217658     -0.045473      0.088953
O	      4.19873      8.15458      6.09355        -0.037367     -0.155052     -0.019694
O	      4.10963      6.09570      8.42445        -0.036776      0.029721      0.063950
O	      6.33074      8.29903      8.29938         0.000843      0.127049     -0.037135
O	      6.13537      6.05000     10.38922        -0.049405     -0.048249     -0.146309
O	      8.42964      8.23309     10.33772         0.029995      0.025529      0.137008
