# total energy = -217.14072932 eV
 
CRYSTAL
PRIMVEC
-0.028206 6.198145 6.183446 
6.247824 -0.008670 6.163682 
4.190598 4.144083 -0.030904 
PRIMCOORD
36 1
Li	      0.07322      6.13316      6.08451         0.069131     -0.055573     -0.040832
Li	      2.13675      6.14989      8.19423         0.063832      0.039220     -0.059258
Li	      4.09354      8.20428      8.17820        -0.034474     -0.029638     -0.053845
Li	      6.26112      8.20842     10.19931        -0.065566      0.009952      0.028141
Li	      6.25211      2.12656      8.21554         0.018017     -0.015090     -0.003012
Li	      2.09193      2.05937      4.08500        -0.029599      0.013430     -0.023889
Li	     10.33525      8.34884     10.29452         0.007156      0.057361      0.020520
Li	      8.24520      6.24167     10.27067         0.019519     -0.111312      0.045523
Li	      6.27228      6.25938      8.27226        -0.052429     -0.018326     -0.009897
V	      4.21341      4.19202      3.90962        -0.017890      0.216505      0.051118
Cr	      2.04849      8.20371      6.17220         0.040713      0.042591      0.076945
Cr	      2.00425      4.12446      2.13585         0.104490      0.089031      0.002399
Cr	      6.23273      4.14690      6.18806         0.043010     -0.004774     -0.048593
Fe	      4.18682      2.05671      6.18439        -0.020773      0.130916      0.124449
Co	      4.29746      6.21111     10.22800        -0.106299     -0.590374     -0.553884
Co	      8.31357      8.25839      8.25877         0.119168     -0.127229     -0.075381
Cu	      6.14385      8.30278      6.20269        -0.010118      0.119302     -0.120025
Ni	      4.14854      6.23073      6.20883         0.060002      0.006766     -0.000390
O	      2.06078      2.17757      1.96669         0.000824     -0.050645      0.104010
O	      4.09335      4.13127      2.16194        -0.004032     -0.025276      0.081839
O	      4.14907      2.20132      4.18445         0.179311     -0.609268     -0.202985
O	      6.06315      4.12298      4.13354         0.264227      0.002558      0.015756
O	      6.24085      2.13811      6.15836        -0.014280     -0.024490     -0.048609
O	      8.27193      4.13414      6.20400        -0.013005      0.027965     -0.504297
O	      2.25945      4.10981      4.12920        -0.054558      0.057800     -0.054082
O	      4.16834      5.95916      4.16067         0.021887     -0.122691     -0.181827
O	      4.26468      4.10527      6.27073         0.149945      0.013416     -0.070038
O	      6.31595      6.16613      6.12264         0.002903     -0.033840      0.050682
O	      6.26500      4.12707      8.18005        -0.029377      0.016357      0.090892
O	      8.37263      6.22828      8.13596        -0.060983     -0.096336      0.255838
O	      2.10026      6.24085      6.16934        -0.279523     -0.196508     -0.034436
O	      4.02285      8.21541      6.16783        -0.038752      0.227954     -0.098987
O	      4.18983      6.02175      8.28031        -0.273021      0.184348      0.946922
O	      6.43120      8.28963      8.10650         0.103614     -0.063956      0.056109
O	      6.10624      6.22088     10.26739        -0.377486     -0.024943      0.209732
O	      8.28730      8.33436     10.20654         0.214415      0.944796      0.023391
