# total energy = -217.77745959 eV
 
CRYSTAL
PRIMVEC
-0.040014 6.208196 6.348797 
6.217734 -0.037252 6.345842 
4.118749 4.110715 0.001873 
PRIMCOORD
36 1
Li	      4.09577      4.08777      0.18685         0.021031      0.008019      0.071336
Li	      5.99734      4.17498      2.19855        -0.022094     -0.004132      0.019223
Li	      4.07981      2.21958      2.13387        -0.001943      0.009309      0.013296
Li	      4.18715      5.99668      2.15472        -0.010247      0.013196      0.046159
Li	      2.20034      4.07803      2.14610        -0.002868      0.000379      0.053368
Li	      4.09896      4.10448      4.08236        -0.035136     -0.001497     -0.036072
Li	      8.29101      6.02298      6.25795         0.027558      0.000487      0.000515
Li	      4.15908      8.22850      4.28433        -0.007679      0.000773      0.011355
Li	      6.04626      8.25936      6.29046        -0.001901      0.039362     -0.003524
V	      4.15945      4.03744      8.36116        -0.007546      0.040760     -0.172263
Cr	      6.16264      2.06995      4.22211        -0.124768      0.036587      0.011373
Cr	      2.05492      6.11497      4.24809         0.029488     -0.090086      0.005046
Cr	      4.09622      6.23891      6.34721        -0.035829     -0.083135      0.021384
Fe	      2.07158      2.10560      0.22389        -0.000779     -0.128893     -0.287982
Co	      2.09538      2.12571      4.16417        -0.012374     -0.006959     -0.126454
Co	      6.17331      6.19222      8.43834         0.010418     -0.042311     -0.002666
Ni	      4.16728     -0.01007      4.25251         0.091276     -0.014652     -0.080495
Ni	      6.25135      4.09554      6.30982        -0.124938      0.021997      0.082190
O	      4.10662      4.12320      2.12073        -0.005374     -0.007687      0.004789
O	      2.02081      2.05927      2.09413         0.001448      0.009195      0.360601
O	      4.18011      2.00996      4.23243         0.090774      0.131717     -0.007381
O	      6.24272      4.09002      4.26477        -0.133908     -0.072538     -0.162537
O	      6.29702      2.06194      6.21470        -0.122332     -0.147717     -0.012959
O	      8.27213      4.00644      6.28869         0.163937      0.171282      0.091868
O	      2.02072      4.17554      4.23652        -0.008083      0.112323     -0.001834
O	      4.06423      6.17536      4.36730        -0.050017      0.006149     -0.045136
O	      4.09659      4.15130      6.56163        -0.067132     -0.029116      0.094747
O	      6.09923      6.13633      6.47852         0.088710      0.136599      0.076329
O	      5.99857      4.22912      8.45339         0.078117     -0.000530      0.075032
O	      8.16680      6.29282      8.50965         0.037674     -0.141672     -0.021789
O	      2.09067      6.26385      6.22214        -0.069161     -0.056687      0.041127
O	      3.99827      8.17479      6.36551         0.175501      0.087114      0.006833
O	      4.23133      6.04247      8.44190        -0.028258      0.061394     -0.053043
O	      6.32047      8.15377      8.51747        -0.092882      0.039602     -0.035281
O	      6.21731      6.24409     10.38186         0.074952     -0.038397     -0.046061
O	      8.16995      8.19022     10.40228         0.074364     -0.060232      0.008903
