# total energy = -90.58055501 eV
 
CRYSTAL
PRIMVEC
-0.000017 0.000038 3.965062 
2.024556 6.241854 0.000034 
-4.216525 4.217066 0.000048 
PRIMCOORD
16 1
Li	     -1.07512      3.14055      0.99038        -0.001970     -0.000538     -0.000536
Li	     -1.10692      7.30399      0.99062        -0.022165      0.024461     -0.001035
Li	     -3.18289      5.24856      0.99032        -0.001611      0.000285     -0.000467
Li	      0.97994      5.21657      0.99037         0.024569     -0.022267     -0.000684
Mn	      0.98451      3.09110      2.97309         0.018147      0.016909     -0.001268
Mn	     -3.13505      3.18831      2.97308        -0.019581     -0.016906     -0.001265
Ni	      0.94455      7.26821      2.97309        -0.001620     -0.001505     -0.002057
Ni	     -1.07046      5.25271      2.97289         0.001423      0.007871     -0.001120
O	     -1.07601      3.14054      2.97262         0.004546     -0.007857      0.003415
O	     -1.18864      7.38582      2.97287        -0.103934      0.102086      0.002809
O	     -3.18343      5.24871      2.97254        -0.003972     -0.000774      0.004167
O	      1.06260      5.13503      2.97263         0.106331     -0.103198      0.002545
O	     -1.05065      5.27303      0.99030         0.018579      0.020151      0.000144
O	     -3.12606      3.19754      0.99061        -0.026354     -0.025908     -0.002131
O	      0.97557      3.08255      0.99062         0.024225      0.024836     -0.002491
O	      0.92393      7.24804      0.99051        -0.016613     -0.017646     -0.000026
