# total energy = -223.40181986 eV
 
CRYSTAL
PRIMVEC
-0.000842 6.298751 6.303118 
6.209538 0.031140 6.271894 
4.143421 4.181675 0.016754 
PRIMCOORD
36 1
Li	     10.20565      4.18135      6.40090        -0.020333      0.001850     -0.017379
Li	      2.15961      2.19533      0.11043         0.042329      0.025121      0.053050
Li	      6.21408      4.19287      2.17015         0.041781     -0.028927      0.090616
Li	      4.05993      2.18926      2.04288        -0.035349      0.008639      0.069491
Li	      6.13512      2.14749      4.24257        -0.025348     -0.021697     -0.022429
Li	      2.15329      4.12266      1.99710        -0.020923      0.014974     -0.005870
Li	      4.20263      2.04262      6.22038         0.010887     -0.060936     -0.049205
Li	      4.18390      8.38013      4.30663        -0.035231      0.022632     -0.013355
Li	      4.13202      6.36587      6.38155        -0.025981      0.025920      0.090001
V	      8.26008      6.45184     10.60107        -0.034065      0.202057     -0.360380
Cr	      4.13095      4.14761      4.15879        -0.010753      0.001508     -0.106886
Cr	      6.22039      4.17040      6.27620         0.052631      0.026573      0.016489
Cr	      6.23036      6.29152      8.37130         0.005400     -0.049481      0.052810
Fe	      6.09439      8.34628      6.33276         0.099913      0.042487      0.113420
Co	      4.15635      0.09240      4.21031         0.079175     -0.292466     -0.042275
Co	      0.11846      2.01039      1.98712         0.058433     -0.050580     -0.089412
Co	      2.06102      2.12314      4.18396         0.132998     -0.128393     -0.130431
Co	      4.15293      4.20857      8.35503         0.073860      0.003192      0.009784
O	      1.94998      2.12081      2.16332        -0.090199      0.031123     -0.025900
O	      4.14087      4.23625      2.18446        -0.019410      0.064016      0.055864
O	      4.11046      2.15635      4.13618        -0.129951      0.020726      0.099809
O	      6.13092      4.19095      4.27254         0.057992      0.106581      0.084092
O	      6.19204      2.18106      6.34771         0.026152      0.037592      0.041737
O	      8.20372      4.20026      6.21560        -0.107828      0.066271     -0.507599
O	      2.11751      4.32275      4.24721         0.059341      0.024723      0.064716
O	      3.98897      6.21164      4.13947        -0.027848     -0.088356      0.046604
O	      4.11800      4.23169      6.35343         0.011493      0.013730     -0.161561
O	      6.19828      6.28619      6.33319        -0.010166     -0.017030     -0.005883
O	      6.10846      4.25835      8.29670         0.004068     -0.007209      0.010593
O	      8.29543      6.41883      8.49036        -0.051933     -0.041419      0.004731
O	      2.06551      6.29814      6.08315         0.015523      0.081715      0.118538
O	      4.23057      8.38159      6.33347        -0.106355      0.030670     -0.003734
O	      4.23253      6.13789      8.47904        -0.078826      0.123214      0.317272
O	      6.36844      8.31714      8.31602         0.043656     -0.012916      0.060687
O	      6.41189      6.30617     10.36942        -0.040130     -0.031438      0.086153
O	      8.32465      8.27417     10.35180         0.054998     -0.144465      0.055841
