# total energy = -213.40417555 eV
 
CRYSTAL
PRIMVEC
0.018561 6.173670 6.331851 
6.137526 0.013487 6.337187 
4.089165 4.116643 0.011360 
PRIMCOORD
36 1
Li	      2.11247      6.22464      8.41170         0.019215     -0.016979     -0.048372
Li	      6.21374      8.29275     10.53089        -0.044511      0.000209     -0.029210
Li	      2.04066      4.06201      2.19391        -0.008521     -0.000707      0.088460
Li	      2.03909      2.08518      4.16508         0.001659     -0.018363     -0.069985
Li	      4.05325      2.09833      6.27912         0.001682     -0.009957     -0.028091
Li	      4.05147      8.16345      4.25656         0.037584     -0.068970     -0.006367
Li	      2.11147      6.22626      4.28752         0.024189     -0.036089     -0.010784
Li	      4.06444      6.17104      6.34159         0.007082     -0.014684      0.055979
Li	      4.10270      4.20457      8.51685        -0.006206     -0.008439      0.030180
V	      6.25826      6.22359      8.55288         0.038355      0.017157     -0.063929
Cr	      6.15303      6.19241     12.63291        -0.026970      0.009210     -0.059491
Cr	      4.09945      6.17463      2.14916        -0.073831     -0.002172      0.095747
Cr	      6.12267      4.15156      6.34737        -0.074128      0.076861     -0.031476
Fe	      4.06869      4.08250      4.26458         0.139153      0.084360     -0.081267
Cu	      2.08483      8.19622      6.29629         0.041801     -0.088135     -0.013521
Ni	      8.15653     10.28094     10.53507        -0.094554      0.106937     -0.046630
Ni	      4.04028      2.06491      2.11576        -0.040376      0.036289      0.020749
Ni	      2.09579      4.10798      6.30810        -0.004343     -0.009579      0.025321
O	      8.20017      8.27623     10.66875        -0.012161      0.032396     -0.085462
O	      1.98142      2.05709      2.00193        -0.154505      0.009029     -0.004156
O	      4.05782      4.17225      1.99852         0.043497      0.160711     -0.025548
O	      4.09228      2.16607      4.14096         0.038160     -0.249436      0.162359
O	      6.03598      4.12977      4.33399         0.156337      0.020052      0.083541
O	      6.15299      2.08044      6.43576        -0.126639     -0.021209      0.024131
O	      8.17401      4.10985      6.23255         0.037584      0.078345      0.157467
O	      2.20478      4.07296      4.29912        -0.336960      0.027649     -0.110229
O	      4.11108      6.02248      4.10076         0.001789      0.179460     -0.036259
O	      4.13673      4.12148      6.27878         0.169306      0.003950      0.089857
O	      6.15047      6.12702      6.58552        -0.054495     -0.087367      0.088794
O	      6.15197      4.16123      8.38424        -0.034059      0.021496     -0.062788
O	      8.08123      6.18249      8.51199         0.047550      0.001654     -0.045334
O	      1.97795      6.18019      6.32322        -0.013732     -0.024858      0.027642
O	      4.10589      8.30884      6.36856         0.022738      0.027212     -0.124755
O	      4.25118      6.20039      8.53293         0.127325     -0.123668     -0.165332
O	      6.15283      8.06522      8.39433         0.125265     -0.089644      0.088622
O	      6.15525      6.17683     10.44222         0.025720     -0.022722      0.110138
