# total energy = -213.09194199 eV
 
CRYSTAL
PRIMVEC
0.019066 6.176653 6.226843 
6.267096 0.014051 6.231758 
4.192848 4.135758 -0.005386 
PRIMCOORD
36 1
Li	      6.28023      4.14012      2.11614        -0.010407     -0.017304      0.060116
Li	      6.24583      2.10247      4.11728         0.008778      0.019364      0.031338
Li	      6.34094      2.12646      8.29094        -0.029886      0.146693      0.003913
Li	      2.07389      4.05221      2.11193        -0.043034      0.067553      0.080976
Li	      2.12621      2.07282      4.11832        -0.029544     -0.029144      0.007328
Li	      4.17258      2.09383      6.20441         0.011840      0.024135      0.050825
Li	      0.05724      4.08946      4.09120         0.067655     -0.037991     -0.124174
Li	      6.31572      8.23665      6.25297         0.021483     -0.021562     -0.038860
Li	      4.17398      4.14219      8.28407         0.071602     -0.062200     -0.016078
V	      8.40911      6.22557     10.29316        -0.088988      0.049824     -0.244018
Cr	      4.19119      4.15285      0.02195        -0.039124      0.073412     -0.107030
Cr	      4.20563      4.10957      4.12933        -0.053919      0.065748      0.040722
Cr	      6.27418      4.09684      6.23316         0.011363      0.127885      0.076685
Fe	      6.24831      6.21347      8.25113         0.242735     -0.439897      0.083834
Cu	      4.16463      2.09378      2.08703         0.052080     -0.086793      0.032693
Cu	      8.30066      4.16845      4.12523        -0.051289     -0.141705     -0.023528
Ni	      2.08926      2.06077      0.05266        -0.159344      0.028835     -0.139503
Ni	      4.17883      6.20033      6.25566        -0.032636     -0.061223     -0.067675
O	      6.21494      8.13266      8.29878        -0.464222      0.564997      0.092103
O	      2.20220      2.07138      2.03765         0.379464      0.002789      0.330951
O	      4.20262      4.08610      2.04479         0.023034      0.297650      0.099717
O	      4.14594      2.14081      4.05418         0.019546     -0.050940      0.022905
O	      6.17765      4.13652      4.25334         0.171099     -0.009464     -0.234724
O	      6.30381      2.04588      6.28926        -0.197285     -0.019273     -0.066126
O	      8.39773      4.14193      6.06983        -0.026338      0.122300      0.097499
O	      2.20545      4.30862      4.16891        -0.070645     -0.096215     -0.023676
O	      4.04842      6.14187      4.16939         0.148696      0.045259     -0.074504
O	      4.28393      4.14735      6.13911        -0.131028     -0.115259      0.045578
O	      6.24063      6.11611      6.27794         0.109413      0.074955     -0.194752
O	      6.29245      4.24874      8.21320         0.020589     -0.374060      0.176734
O	      8.29224      6.24062      8.48166         0.100487      0.011054      0.099936
O	      2.04325      6.18634      6.12198         0.080314     -0.128359      0.068788
O	      4.16274      8.29454      6.30918         0.183978     -0.036007     -0.006356
O	      4.24354      6.22786      8.39409        -0.271762     -0.110089     -0.001444
O	      6.46650      6.14187     10.45142        -0.047663      0.022343     -0.004074
O	      8.42899      8.07738     10.43699         0.022958      0.092686     -0.136117
