# total energy = -212.00427690 eV
 
CRYSTAL
PRIMVEC
-0.009313 6.264219 6.057778 
6.402538 -0.012360 6.061607 
4.261020 4.171075 -0.000477 
PRIMCOORD
36 1
Li	      4.21835      2.08131      2.11123        -0.082042      0.005318     -0.061492
Li	      4.29598      6.34097     10.02097         0.010991      0.064212      0.025260
Li	      6.30171      2.08880      3.99584        -0.005006     -0.006818      0.043161
Li	      4.27320      6.28072      2.10116         0.047521      0.014474     -0.039303
Li	      2.08974      4.15171      2.15093        -0.003661     -0.106456     -0.027403
Li	      2.14457      2.14993      3.99116        -0.014005     -0.051719     -0.064645
Li	      0.04911      4.11066      3.95081         0.012118     -0.014342      0.016141
Li	      2.22485      6.16256      3.97415         0.002428     -0.002539      0.067959
Li	      6.42856      6.25334      8.11174         0.012482      0.011971      0.119858
V	     10.57506     10.37443     12.05575        -0.087300      0.020213     -0.271759
Cr	      8.49631      8.31269     12.07084        -0.148217      0.090340     -0.091064
Cr	      6.43168      4.18045      6.08706         0.016651     -0.168822      0.006552
Cr	      8.56660      8.29749      8.18997         0.104904      0.080316      0.110313
Fe	      6.38412      4.19435      2.09164        -0.034654     -0.031535      0.089713
Cu	      8.47044      6.27804      6.03474         0.071889     -0.139084      0.141944
Cu	      6.41654      8.24231      6.02943        -0.112530      0.104178     -0.102717
Cu	      4.33272      6.26439      6.03056         0.035817      0.077858     -0.071914
Ni	      4.22488      4.16723      4.02910         0.065865      0.099376     -0.347557
O	      8.48483      6.41876      8.00689         0.024726     -0.086608     -0.382462
O	      6.32006      6.32079     10.29601         0.031313     -0.028337      0.099748
O	      2.16225      1.96723      1.91203         0.017471      0.103199      0.022741
O	      4.30007      4.18132      1.87793         0.007158     -0.049383     -0.064563
O	      4.26172      2.23692      4.10990        -0.072660     -0.461334      0.362661
O	      6.24814      4.15053      4.05299         0.339946      0.054419      0.074667
O	      6.49599      2.04532      6.05870         0.090636      0.134514     -0.003589
O	      8.58433      4.08263      6.08195        -0.070808     -0.097986      0.017573
O	      2.28150      4.16125      4.12745        -0.389438     -0.023298      0.108326
O	      4.24155      6.09904      4.13697         0.056617      0.396730      0.164074
O	      4.45683      4.19333      6.16506         0.207630      0.143679      0.076119
O	      6.43740      6.18541      6.07829         0.130101      0.003206     -0.042793
O	      6.30364      4.16663      8.07062         0.001365      0.042681     -0.091953
O	      1.87959      6.30022      6.05115        -0.069638     -0.035162     -0.015650
O	      4.13890      8.53020      6.01707        -0.082771     -0.052342      0.043176
O	      4.16599      6.14665      7.99709         0.023624      0.034314     -0.088331
O	      6.51702      8.41602      7.97180        -0.082334     -0.128550      0.078172
O	      8.56116      8.34816     10.03900        -0.056189      0.003318      0.099034
