# total energy = -212.90755980 eV
 
CRYSTAL
PRIMVEC
-0.002537 6.580372 6.164569 
6.082401 0.008740 6.156729 
4.065286 4.391446 -0.006502 
PRIMCOORD
36 1
Li	      0.05650      0.03707      0.05627        -0.026463      0.087238     -0.068285
Li	      2.05421      8.66709      6.14584        -0.039212      0.047262     -0.000654
Li	      1.89511      0.18233      1.95586         0.004316      0.046791      0.077198
Li	      4.01667      2.24485      1.97328        -0.070561     -0.003431      0.104883
Li	      6.13522      2.26162      4.14198        -0.046853     -0.022690      0.045599
Li	      1.96082      2.21620      4.01453         0.090042     -0.007716     -0.016336
Li	      6.03838      4.31486      6.17603         0.023773     -0.057157      0.005792
Li	      4.02877      8.68856      4.14836        -0.107818      0.007569     -0.054867
Li	      2.13631      6.57718      4.15483        -0.074754     -0.081667     -0.082116
V	      5.97938      6.66538      8.38249         0.141227     -0.047644     -0.009815
Cr	      7.92172      4.40767      4.18487         0.027113     -0.134765     -0.014686
Cr	      2.02997      4.29725      2.06582        -0.118385      0.068519     -0.196955
Cr	      8.13418      6.53769      6.15887        -0.057534      0.006589     -0.087008
Fe	      1.98472      4.45514      6.05817        -0.101474      0.031891      0.173589
Cu	      4.05158      6.55201      2.05150        -0.110833      0.081980     -0.157748
Cu	      4.12461      4.39784      4.03904         0.092141     -0.137496      0.231758
Cu	      4.06255      6.62763      6.02631        -0.055673      0.148393     -0.100733
Cu	      4.11612      4.42602      8.25603         0.066217     -0.029835     -0.001673
O	      2.13914      6.42755      6.15417        -0.032183     -0.046261      0.025405
O	      4.13857      8.64084      6.12985        -0.024404      0.043813      0.043979
O	      8.14422      9.10127     10.21906        -0.002962      0.242850      0.115216
O	      1.85034      2.33312      2.00175         0.221694     -0.041691      0.002732
O	      3.98827      4.17917      2.09419         0.062929     -0.065976     -0.116618
O	      4.08499      1.90285      4.23761         0.013301     -0.101106     -0.206499
O	      6.10759      4.37620      4.05799        -0.024193     -0.011997      0.001701
O	      6.00639      2.18073      6.31537         0.158072     -0.015567     -0.207556
O	      8.07853      4.53065      6.15962         0.006966     -0.093728     -0.020544
O	      2.15663      4.31917      4.07510        -0.076078      0.048907      0.027031
O	      4.06437      6.68032      3.89520         0.039359      0.064038      0.407117
O	      4.04318      4.27892      6.16570        -0.017115     -0.151242     -0.037664
O	      6.06494      6.69532      6.30220         0.053499      0.026895     -0.033303
O	      6.08014      4.76245      8.20129         0.123253      0.071265     -0.009291
O	      8.12329      6.38969      8.18511        -0.015320     -0.185515      0.115888
O	      4.18048      6.75389      8.34767        -0.106923      0.091926      0.048325
O	      6.26546      8.50224      8.19080         0.008595      0.138211     -0.136968
O	      6.09456      6.65661     10.14748        -0.023761     -0.018654      0.133106
