# total energy = -212.50916673 eV
 
CRYSTAL
PRIMVEC
0.009462 6.166891 6.156490 
6.289135 -0.014023 6.179465 
4.194905 4.128863 -0.011351 
PRIMCOORD
36 1
Li	      6.40639     10.22625      8.28835         0.063079     -0.029424     -0.006117
Li	      4.24214      2.01299      2.16208         0.012064      0.020914     -0.040923
Li	      4.15334      0.06744      4.02680        -0.018735     -0.005531      0.035126
Li	      6.21078      2.11711      4.06298         0.015982     -0.015438     -0.016062
Li	      4.18843      6.20149      2.14457         0.048283     -0.009957     -0.000874
Li	      6.32021      6.11085      4.08591         0.019157      0.036083     -0.053788
Li	      4.16472      2.06649      6.04762        -0.025766     -0.015612     -0.022918
Li	      4.12476      8.13081      4.11153        -0.013164     -0.047972     -0.002655
Li	      2.20534      6.23102      4.10358         0.006624      0.007715      0.026999
V	      2.14938      4.10018      2.18877         0.030642     -0.132815      0.095563
Cr	      6.28712      6.19011     12.23268         0.030828      0.025352      0.037374
Cr	      8.41717      8.20673     12.24381        -0.003078     -0.063285      0.018583
Cr	      6.27269      6.19542      8.32878        -0.096006      0.027065      0.180307
Fe	      6.25172      4.08284      6.06977         0.080302     -0.026774      0.072192
Ni	      4.18964      6.18028      6.15227        -0.085662      0.108720      0.020944
Ni	      4.25622      4.10461      4.10833        -0.079006      0.025098     -0.110809
Ni	      6.28752      8.22122      6.15683        -0.026551      0.021311     -0.095957
Ni	      8.38507      8.21151      8.31082         0.064241     -0.071198      0.034713
O	      2.06470      2.29266      1.95877         0.001539      0.053933      0.001591
O	      3.97690      4.19509      1.93037        -0.016216      0.001446     -0.022526
O	      4.19375      2.22795      4.09392        -0.051679     -0.200617      0.000299
O	      6.21144      4.14274      4.14987         0.118183     -0.000152     -0.126670
O	      6.39531      2.06061      6.16832        -0.021526     -0.044281     -0.016595
O	      8.39848      4.07525      6.20798         0.000508      0.021512      0.037267
O	      2.16175      4.08001      3.98877        -0.025284      0.049647     -0.136431
O	      4.21172      6.01550      4.14934         0.000335      0.189213     -0.111768
O	      4.22619      4.10336      6.21110         0.006777     -0.089685      0.004492
O	      6.26260      6.12646      6.32306         0.127950     -0.070625      0.076833
O	      6.42152      4.16983      8.18135         0.033078      0.028373      0.010876
O	      8.27611      6.02450      8.23534        -0.068807     -0.018405     -0.025858
O	      2.00956      6.19499      6.19672        -0.050596      0.084104     -0.001447
O	      4.18415      8.30734      6.11194        -0.110082      0.087497      0.042074
O	      4.30552      6.13030      8.21132         0.140070      0.103216      0.071590
O	      6.36317      8.11095      8.17004        -0.127801     -0.043169      0.114972
O	      6.27855      6.15760     10.22649         0.030917      0.008327     -0.180687
O	      8.43221      8.20598     10.30620        -0.010599     -0.014588      0.090290
