# total energy = -219.21016615 eV
 
CRYSTAL
PRIMVEC
-0.024045 6.270281 6.171559 
6.298772 -0.019120 6.166508 
4.190448 4.168037 -0.004119 
PRIMCOORD
36 1
Li	      6.29077      0.04609      6.14094        -0.114006      0.139573      0.052337
Li	      6.20619      4.16385      2.11285        -0.077863      0.021698      0.011758
Li	      4.23411      2.12394      2.12137         0.003009      0.062137      0.044863
Li	      4.23370      0.01289      4.12490         0.011351      0.054547      0.123424
Li	      6.23964      2.08267      4.09624        -0.050614      0.010833      0.052105
Li	      0.07514      2.00891      2.04018         0.033826     -0.061184     -0.158489
Li	      2.13973      2.02605      4.05846         0.089685     -0.028710     -0.060770
Li	      6.27378      4.20777     10.25014         0.029151      0.032455     -0.017411
Li	      2.10811      4.20492      6.19322         0.135109     -0.001056      0.021929
V	      4.19202      6.45571      6.12780        -0.261056     -0.617473     -0.157865
Cr	      6.27089      4.12751      6.10659         0.081976     -0.225229      0.000726
Cr	      8.33755      8.34870      8.27459         0.214510     -0.139712     -0.178419
Cr	      6.26405      6.28511      8.25343         0.123689      0.017537      0.051462
Fe	      2.17457      4.04726      2.07119        -0.011063      0.153702     -0.269208
Fe	      2.00467      6.23785      4.17247        -0.096329     -0.002407     -0.211937
Co	      4.18920      2.09567      6.12009        -0.042210     -0.180122     -0.102256
Cu	      8.32552      2.06655      6.12357        -0.028830      0.283870     -0.083521
Cu	      4.22949      4.11287      4.06114         0.052369     -0.309889      0.047331
O	      4.32069      8.18118      6.17861        -0.231206     -0.010026     -0.103056
O	      2.06577      2.16381      1.88696         0.004002     -0.385611      0.281715
O	      4.12314      4.14770      2.11808         0.144907      0.072128     -0.694561
O	      4.15438      2.15200      4.26608        -0.016026     -0.123732     -0.058565
O	      6.21103      4.18168      4.17646         0.095728      0.035378     -0.082760
O	      6.07561      2.15076      6.18009         0.033943     -0.027822     -0.057567
O	      8.29266      4.25770      6.19905         0.064617      0.396819     -0.101038
O	      2.13263      4.24292      4.02775        -0.181614      0.060362      0.334891
O	      4.09438      6.15949      4.23630         0.349258      0.478918      0.818102
O	      4.24387      4.14850      6.22490        -0.119175      0.143237      0.432678
O	      6.25642      6.18402      6.20807        -0.497678      0.053558     -0.022940
O	      6.25601      4.23431      8.16100        -0.089080      0.065154      0.078046
O	      8.29749      6.27991      8.16148        -0.022930      0.085755      0.191284
O	      2.21084      6.29551      6.14630         0.837685     -0.173563      0.271872
O	      4.25762      6.17731      8.14217        -0.104839      0.148349     -0.521568
O	      6.39428      8.25342      8.21903        -0.193349      0.003867      0.018911
O	      6.36861      6.21344     10.24038        -0.178761      0.008023      0.026398
O	      8.42462      8.23663     10.28481         0.011817     -0.041362      0.022101
