# total energy = -136.49302394 eV
 
CRYSTAL
PRIMVEC
4.169332 4.169418 0.000050 
-4.163171 -0.006139 3.947282 
4.168995 -4.169069 3.960071 
PRIMCOORD
24 1
Li	      1.03317      1.02910      0.98892         0.019284     -0.005250     -0.001124
Li	      1.04628      1.03556      4.93888         0.002810      0.004017     -0.000425
Li	      3.11813     -1.05193      4.94172        -0.006451      0.011576      0.000577
Li	      3.14048      3.13718      0.98891         0.005018     -0.020806     -0.001089
Li	     -1.03880     -1.04977      4.93917         0.002480      0.004604     -0.001827
Li	      1.05381     -3.11758      4.94156        -0.015697      0.005320      0.000040
Mn	      1.02118      3.14841      2.96267         0.032718     -0.034048      0.008274
Mn	      1.07419     -1.07405      6.91565        -0.036114      0.034929     -0.011111
Mn	      3.12845      1.03987      2.96469         0.000749      0.000735      0.004807
Ni	      1.04377     -1.04483      2.96555        -0.000174      0.001821     -0.001064
Ni	     -1.01792      1.01835      2.97344        -0.001411     -0.000559      0.006174
Ni	      3.10642     -3.10598      2.95717        -0.000633     -0.001936     -0.004962
O	      1.13069      1.05185      2.96076         0.077723      0.084586     -0.011396
O	      5.12599      1.02910      2.96925        -0.076418     -0.085445      0.015341
O	      3.13370     -1.04648      6.91909        -0.002665     -0.002004     -0.000832
O	      3.11674      3.03787      2.96081        -0.084215     -0.077465     -0.010752
O	      3.13939     -0.95764      2.96965         0.086688      0.079311      0.013219
O	      1.04759     -3.13280      6.91919        -0.001204     -0.000005     -0.000702
O	      5.21482     -1.04364      4.94501        -0.003953     -0.000885      0.001391
O	      1.03449      3.13382      4.84197         0.001457     -0.000004     -0.117467
O	      3.11958      1.04878      4.87737        -0.008983      0.009811     -0.132174
O	      3.12911     -3.12725      4.94535        -0.002198     -0.002662     -0.001760
O	      3.13708      1.03066      1.05312         0.011798     -0.008024      0.127744
O	      1.05943     -1.06037      5.03617        -0.000609      0.002381      0.119118
