# total energy = -220.54802446 eV
 
CRYSTAL
PRIMVEC
0.009270 6.185034 6.179249 
6.277852 0.001570 6.186916 
4.195439 4.138782 -0.009277 
PRIMCOORD
36 1
Li	      2.02512      2.02462      0.07247        -0.025101     -0.017364      0.019421
Li	      2.10308      6.19398      8.18651        -0.025137     -0.021143      0.025953
Li	      4.20329      8.21636      8.18012        -0.002745     -0.021505     -0.016595
Li	      6.29455      2.05536      4.15931         0.021651     -0.016464      0.018357
Li	      4.25657      2.07396      6.22693         0.060937      0.022213     -0.028166
Li	      6.30483      4.03500      6.19947         0.005501     -0.138241     -0.015277
Li	      8.35021      6.22118     10.31236        -0.007914      0.025260      0.004959
Li	      4.15452      6.22909      6.25648        -0.032134      0.025815      0.034714
Li	      6.30236      6.23760      8.19648        -0.003622      0.010364     -0.003689
V	      4.20481      0.02326      4.14072         0.214215     -0.165820      0.009817
Cr	      4.22010      4.12002      4.12264        -0.044188      0.096286     -0.037828
Cr	      4.19998      8.25965      4.12331         0.082213     -0.073285      0.016080
Cr	      8.38974      8.22121      8.20026        -0.051570      0.047163     -0.015488
Fe	      6.31896      6.15733      4.10497        -0.250306      0.238402     -0.034243
Fe	      6.26842      8.28745      6.26357         0.071338     -0.087890     -0.024042
Co	      6.28331      2.06097      8.22134         0.018075     -0.031434     -0.103389
Ni	      0.03319      0.04091      0.01702        -0.040621     -0.023106      0.013677
Ni	      8.36239      4.17705      8.13064        -0.077532     -0.014991     -0.013039
O	      1.96734      2.13057      2.10220        -0.006596     -0.100852      0.051217
O	      4.13600      4.24972      2.12091         0.140921      0.035793      0.083307
O	      4.14662      2.07293      4.06476        -0.076314      0.015788      0.011378
O	      6.25425      4.17952      4.16198         0.061216      0.017314     -0.011028
O	      6.30820      2.01990      6.31481        -0.027131      0.111963      0.066317
O	      8.37726      4.14502      5.99876        -0.053952      0.013022      0.048635
O	      2.11549      4.10260      4.11699         0.011985     -0.043099      0.006408
O	      4.24484      6.17885      4.02350         0.068600      0.010941     -0.033450
O	      4.10699      4.17028      6.15665         0.119249     -0.004638      0.078185
O	      6.25676      6.39016      6.10596         0.022587     -0.155863      0.005341
O	      6.26073      4.03360      8.28506        -0.130908      0.009522      0.004776
O	      8.52175      6.22540      8.23301         0.031012      0.128581     -0.019230
O	      2.07176      6.01074      6.18262         0.086094      0.196809      0.012658
O	      4.27150      8.28003      6.11033        -0.127071     -0.060544     -0.005451
O	      4.17645      6.12407      8.44361        -0.009043     -0.060755     -0.128589
O	      6.41160      8.22374      8.18716         0.056709      0.030325      0.040600
O	      6.19283      6.11618     10.30098        -0.139926     -0.084471     -0.061432
O	      8.48327      8.31423     10.22549         0.059509      0.085903     -0.000863
