# total energy = -222.34432389 eV
 
CRYSTAL
PRIMVEC
0.026979 6.250719 6.236558 
6.148554 0.032644 6.230829 
4.130188 4.195113 -0.009734 
PRIMCOORD
36 1
Li	      2.13074      6.25463      8.25940        -0.027027     -0.035600      0.028325
Li	      4.14174      6.25295     10.34941        -0.020914     -0.035019     -0.023880
Li	      8.22712      4.20630      8.27482         0.015578      0.063591     -0.008287
Li	      2.07065      2.09894      4.11827         0.026763      0.005010      0.032493
Li	      8.25420      6.30186      6.24447        -0.025195      0.060968      0.017831
Li	      8.20622      6.31414     10.40571        -0.016139     -0.024242     -0.016927
Li	      4.05932      6.25125      6.32549        -0.000064     -0.089010      0.045284
Li	      4.08615      4.29343      8.28788         0.008074      0.022117     -0.025759
Li	      6.16066      6.31465      8.36428         0.028556     -0.034015     -0.031252
V	      6.20163      4.37480      6.22951         0.089516      0.426484     -0.004856
Cr	      6.22843      8.33763     10.34633         0.000174     -0.043452     -0.006844
Cr	     10.21463      6.30728      8.28326        -0.118620      0.074395      0.016530
Cr	     10.28976      8.39814     10.37730         0.057202      0.027219      0.018816
Fe	      4.08816      8.15761      8.28232         0.013020      0.033518      0.019250
Fe	      4.04582      4.21353      4.15299         0.042181      0.084511     -0.093275
Co	      2.08355      8.32855      6.22948         0.057891     -0.075969     -0.010851
Co	      2.11704      4.26081      6.30793         0.006556     -0.215543      0.027682
Cu	     10.24737      4.21706      6.22030        -0.098587      0.003900     -0.012706
O	      2.02157      2.09994      1.94616        -0.051942     -0.009221     -0.059163
O	      4.13665      4.31447      2.10221        -0.014092      0.077874      0.028911
O	      4.18045      2.19582      4.05375         0.029841     -0.031862      0.048818
O	      6.11308      4.12533      4.26986         0.055081     -0.025487     -0.045766
O	      6.26732      2.30544      6.22069         0.025674      0.088171      0.035905
O	      8.21229      4.08173      6.23454        -0.041239     -0.104771     -0.024828
O	      2.05018      4.14760      4.26566        -0.064842      0.069196     -0.087102
O	      4.15711      6.30004      4.00288        -0.019837      0.050869     -0.034518
O	      4.22887      4.22250      6.15047        -0.120216      0.050447      0.074049
O	      6.27830      6.14927      6.26145        -0.060891     -0.242612      0.006981
O	      6.18652      4.08762      8.31537         0.057095     -0.107036      0.040849
O	      8.43171      6.30868      8.24196         0.149500     -0.009600      0.048485
O	      1.94959      6.33368      6.24941         0.036506      0.251381     -0.024249
O	      4.03944      8.21837      6.18441        -0.000421     -0.149954     -0.031800
O	      4.12237      6.31191      8.32311        -0.041263     -0.154053      0.017722
O	      6.13432      8.35216      8.33569         0.040473      0.041205      0.088622
O	      6.17568      6.27445     10.44989        -0.017826     -0.023456     -0.097570
O	      8.25032      8.36917     10.51077        -0.000565     -0.019953      0.043082
