# total energy = -223.70351960 eV
 
CRYSTAL
PRIMVEC
-0.049739 6.330585 6.316464 
6.188525 -0.009758 6.276433 
4.124573 4.191892 -0.004300 
PRIMCOORD
36 1
Li	      2.03014      2.13492      0.17150        -0.010567     -0.006568     -0.003548
Li	      6.13116      4.33188      2.19235         0.017142      0.004272      0.002024
Li	      3.97944      2.16641      2.26524        -0.000307     -0.033665      0.086933
Li	      8.17465      4.22332      4.19345        -0.054210     -0.027872      0.011110
Li	      4.25745      6.21775      2.17422         0.041800      0.016074      0.062893
Li	      2.08736      4.04833      2.16480         0.011293     -0.023220      0.087383
Li	      2.03102      2.07767      4.00258        -0.035790      0.097570     -0.039468
Li	      4.16017      4.19380      3.99479        -0.042750     -0.039098     -0.039699
Li	      2.08936      6.27585      4.23070         0.040180     -0.004358     -0.012660
V	      6.17844      6.31390      8.48908        -0.142787     -0.014540     -0.088681
Cr	      4.12281      4.19114      0.08072         0.016032     -0.030610     -0.001923
Cr	      2.01634      4.23816      6.23648         0.104606     -0.113982     -0.080691
Cr	      4.04089      6.35498      6.23749         0.006621     -0.029366      0.023000
Fe	      4.15376      2.03960      6.15493        -0.181132      0.108821      0.169683
Fe	      8.22567      8.41048      8.49060         0.012272      0.064117     -0.190010
Co	      6.25457      4.15385      6.21164        -0.062992     -0.151568     -0.067302
Co	      6.17619      2.16081      4.17725        -0.016444      0.195300      0.041619
Co	      4.09881      8.38774      4.19445         0.059187     -0.037632      0.069553
O	      2.06860      2.08378      2.08806         0.004007     -0.016135     -0.025191
O	      4.11407      4.17545      1.96186         0.019630     -0.035115      0.078256
O	      4.13783      2.11833      4.26918         0.183934     -0.015882     -0.146619
O	      6.19313      4.11128      4.25649         0.012191     -0.018329     -0.111921
O	      6.13397      2.00063      6.31286         0.027947      0.137040     -0.098272
O	      8.29661      4.26507      6.28350         0.072725     -0.035330      0.025277
O	      1.88733      4.22042      4.28621        -0.019909      0.043986      0.014619
O	      4.07366      6.46450      4.29818        -0.006292      0.020129     -0.106984
O	      4.07750      4.27869      6.35381        -0.143115     -0.001330      0.032173
O	      6.11862      6.36554      6.39064         0.022185     -0.111935     -0.033485
O	      6.13318      4.30451      8.47528         0.011694      0.048467      0.009961
O	      8.03902      6.38434      8.26185         0.016121     -0.082037      0.044447
O	      2.01919      6.20679      6.31560        -0.008413      0.013687     -0.040381
O	      4.12339      8.41518      6.14165         0.087585      0.052394      0.017723
O	      4.25925      6.27256      8.29774         0.067959      0.021909     -0.031776
O	      6.19778      8.31418      8.32698        -0.045629     -0.031918      0.215964
O	      6.15233      6.26130     10.43896         0.003120     -0.016395     -0.048603
O	      8.27729      8.39115     10.38848        -0.067894      0.053117      0.174598
