# total energy = -217.15429725 eV
 
CRYSTAL
PRIMVEC
0.018144 6.131545 6.320314 
6.282314 -0.009782 6.348489 
4.197914 4.116702 -0.016433 
PRIMCOORD
36 1
Li	     10.35136      4.16262      6.39671        -0.008634      0.019629      0.045192
Li	      8.29173      2.22628      6.45752         0.000195      0.130732      0.117890
Li	      8.32372      4.15398      4.32969        -0.005102      0.051956      0.023214
Li	      6.30568      2.05714      8.35787         0.009230     -0.003804     -0.045560
Li	      8.37888      4.06581      8.25389         0.025893      0.018667     -0.059163
Li	      2.12910      1.99315      4.16041         0.001430     -0.007693      0.012598
Li	      6.46693      4.07342      6.37724         0.038112      0.029474      0.022605
Li	      4.18565      6.11308      6.32379        -0.016186     -0.025867      0.014519
Li	      6.33002      6.06425      8.46259         0.012689     -0.012202     -0.029745
V	      6.17076      8.13413      6.37798         0.033581     -0.194761     -0.003296
Cr	      4.20974      4.13173      4.20111         0.076900     -0.019526      0.044822
Cr	      6.29619      4.07951     10.50090        -0.022473      0.075703     -0.016070
Cr	      4.25700      4.07777      8.37810        -0.030710      0.135575     -0.083457
Fe	      2.09282      0.13144      2.10144        -0.050671     -0.106877      0.126352
Fe	      6.31614      1.99606      4.40682        -0.126887      0.053882     -0.113052
Cu	      8.40507      6.14439     10.51516         0.024086      0.022064     -0.177634
Ni	      4.14881      2.01456      2.15454         0.042103     -0.013057      0.008537
Ni	      8.43129      6.10082      6.33466         0.039907     -0.018659     -0.109126
O	      8.38650      4.19563      6.31619         0.029058     -0.351723     -0.057978
O	      2.14770      2.02374      2.09933        -0.121423      0.124116      0.063488
O	      4.27387      4.04657      2.22720        -0.044870      0.127504      0.018455
O	      4.29474      2.10911      4.24598        -0.067383      0.041155     -0.077551
O	      6.19478      4.03270      4.14714         0.045689      0.056178      0.033255
O	      6.32470      2.05534      6.26448         0.103542      0.011631      0.117274
O	      2.09068      4.13053      4.38545        -0.017826     -0.064895      0.011733
O	      4.07995      6.16716      4.23221         0.204772     -0.032807      0.059611
O	      4.06552      4.02835      6.30426        -0.004790      0.188694     -0.005021
O	      6.31195      6.34361      6.29084        -0.134280      0.032043     -0.018368
O	      6.20100      4.09981      8.55258         0.061478      0.007505      0.019406
O	      8.40344      6.22728      8.29988        -0.003900     -0.118357      0.542619
O	      2.12677      5.90105      6.44382        -0.017000      0.097957     -0.275205
O	      4.35407      8.17706      6.25456        -0.094499     -0.012065     -0.081438
O	      4.11426      6.09091      8.44421         0.044673     -0.050479     -0.028704
O	      6.33516      8.17549      8.29968         0.047346     -0.002791      0.010491
O	      6.44154      6.12323     10.52493        -0.145822     -0.094911     -0.008169
O	      8.42676      8.16234     10.41226         0.071771     -0.093994     -0.102523
