# total energy = -216.47243190 eV
 
CRYSTAL
PRIMVEC
0.044220 6.143124 6.181697 
6.545210 0.029446 6.198769 
4.369235 4.112949 0.013420 
PRIMCOORD
36 1
Li	      0.08706      6.13949      6.14477        -0.000637     -0.015545      0.041488
Li	      2.35166      6.08446      8.27624        -0.031694     -0.002738      0.011547
Li	      8.64578      4.13753      4.11254        -0.019174     -0.102177      0.014038
Li	      6.55943      2.19059      4.11909        -0.025717     -0.020898     -0.000416
Li	      4.54857      4.05841      4.21840         0.035464      0.038419     -0.009597
Li	      6.60281      4.10904      6.16082         0.011381     -0.058396      0.021195
Li	      8.69540      6.19932     10.38139         0.014522      0.008211     -0.066747
Li	      4.28294      6.07465      6.27457         0.008501      0.025783     -0.041924
Li	      4.29468      4.22583      8.19615         0.029302     -0.037066      0.049498
V	      4.34790      6.08502      2.05667        -0.213305     -0.042160      0.054790
Cr	      2.25527      8.15070      6.16169        -0.111428      0.329806     -0.029022
Cr	      8.74755      4.15107      8.27653        -0.122992      0.162319      0.044605
Cr	      6.51782      4.22673     10.32852        -0.121639      0.162170      0.115269
Fe	      4.50669      8.10540      8.28017        -0.006157      0.347911     -0.158024
Fe	      6.61792      6.01356      4.23554        -0.158657      0.321213     -0.187585
Cu	      2.35231      4.21450      6.18906        -0.201548      0.095066     -0.187129
Cu	      6.50087      6.16424      8.21100        -0.144120      0.208968      0.131762
Ni	      4.41069      2.08756      6.13532         0.204480     -0.057797      0.064958
O	      4.30083      4.09374      6.17784         0.312892      0.107487     -0.020136
O	      2.12971      2.10134      2.05075         0.059285     -0.071904     -0.015566
O	      4.20091      4.14973      2.12688         0.090818     -0.092285      0.002508
O	      4.26105      2.07796      4.07456        -0.042444     -0.015578      0.031051
O	      6.53415      4.16817      4.17935         0.030807     -0.193718      0.012921
O	      6.66265      2.07849      6.35959         0.065394      0.005343     -0.032792
O	      8.72986      4.08282      6.31093        -0.035024     -0.004785     -0.081621
O	      1.96003      4.02948      4.12784         0.000854     -0.082381     -0.132239
O	      4.50187      6.26625      3.95701         0.036584      0.061568     -0.017887
O	      6.66852      6.29219      6.20497        -0.084452      0.030971      0.121351
O	      6.66940      4.13540      8.32599         0.219346     -0.233603     -0.115844
O	      8.97903      6.12857      8.23940         0.034715      0.042989      0.055850
O	      2.14643      6.16639      6.17273         0.001470     -0.297060      0.012973
O	      4.24829      8.22642      6.15710         0.093340     -0.087707      0.055181
O	      4.32053      6.24676      8.24770         0.065715     -0.252178     -0.053867
O	      6.48059      8.18472      8.18141        -0.058305     -0.101460      0.349561
O	      6.63078      6.06319     10.21219        -0.048690     -0.179285     -0.074912
O	      8.99639      8.20333     10.38682         0.111115      0.000497      0.034762
