# total energy = -217.02545693 eV
 
CRYSTAL
PRIMVEC
0.027420 6.235122 6.236092 
6.319895 0.035616 6.227866 
4.237169 4.175152 -0.000012 
PRIMCOORD
36 1
Li	      6.35094     10.27478      8.32562        -0.004696      0.047356     -0.064744
Li	      4.29824      2.14938      2.10238        -0.049956      0.027121     -0.007209
Li	      6.30814      2.14575      8.23669        -0.005294      0.037562     -0.048845
Li	      2.17262      2.07138      3.98357        -0.065213      0.055685     -0.036801
Li	      8.44527      6.26454      6.24134        -0.016478     -0.030521      0.025351
Li	      6.36224      4.14416      6.27353         0.040778     -0.011662      0.032353
Li	      6.40920      8.39330      6.40147         0.040094      0.023701      0.020257
Li	      8.30274      8.23090      8.32594         0.027434     -0.035557     -0.013650
Li	      6.48035      6.35694      8.38995         0.035130     -0.056020     -0.027026
V	      4.49490      6.19966      6.39675         0.042914     -0.100148     -0.020107
Cr	      8.40843      2.13558      6.21223         0.077466      0.072319      0.054207
Cr	      4.12630      0.08707      4.05370         0.093446     -0.088351     -0.007037
Cr	      4.23001      4.16666      4.16145        -0.101087      0.115868     -0.113078
Fe	      6.32142      0.08801      6.23983        -0.234188     -0.044801      0.275871
Fe	      0.15437      4.09855      4.09021        -0.139528     -0.000898     -0.076138
Cu	      6.28016      2.16482      4.04864         0.011895     -0.071354      0.125266
Cu	      8.43160      4.21134      8.29098         0.094805     -0.011928     -0.103883
Cu	      8.44706      6.24431     10.34119         0.059425      0.111781     -0.072382
O	      8.47976      6.10210      8.40654         0.015482      0.411206     -0.060802
O	      6.35560      8.32963      8.38820        -0.072322      0.010760     -0.038563
O	      2.08161      2.29658      1.93266         0.002780     -0.433330     -0.085169
O	      4.05621      4.18845      2.05984         0.272684      0.028260      0.015398
O	      4.14536      2.13535      4.18604         0.018141     -0.026133     -0.074375
O	      6.30434      4.26417      4.09037        -0.003438     -0.221728     -0.034044
O	      6.39486      2.04968      6.08423        -0.009900      0.144686     -0.004656
O	      8.49260      4.16479      6.01135         0.007123     -0.176821     -0.126828
O	      2.16149      4.18570      4.34763         0.221145     -0.053297      0.276105
O	      4.31403      6.24370      4.40866         0.201526     -0.146925     -0.013851
O	      4.26460      4.36633      6.19881         0.054492      0.090232      0.032251
O	      6.19743      6.28202      6.36381         0.018822     -0.011653      0.051672
O	      6.54291      4.15807      8.39484        -0.316600      0.017349     -0.111908
O	      2.03749      6.32172      6.17413         0.084704      0.016784      0.191112
O	      4.16998      8.20693      6.17661        -0.032263      0.077471      0.159809
O	      4.17486      6.27314      8.16829        -0.021409     -0.023920      0.114542
O	      6.18741      6.15353     10.44915        -0.260075      0.142960     -0.158088
O	      8.60254      8.39041     10.37793        -0.087837      0.113945     -0.075011
