# total energy = -217.33104413 eV
 
CRYSTAL
PRIMVEC
0.007034 6.220205 6.321423 
6.219665 0.001329 6.327163 
4.134701 4.138892 0.012736 
PRIMCOORD
36 1
Li	      4.15093      4.13256      0.12477         0.021067     -0.004197     -0.008464
Li	      4.24000      8.26047      8.52454        -0.066303      0.007599      0.031503
Li	      4.03747      0.13696      4.08653        -0.042052      0.027643     -0.040874
Li	      6.09597      2.16039      4.11962         0.023031     -0.020437      0.048868
Li	      4.17180      6.12540      2.07805        -0.002819      0.026943      0.028598
Li	      2.15614      1.99144      4.18576        -0.063754      0.051925      0.030619
Li	      6.19004      8.27057      6.50296        -0.007930      0.000442     -0.074344
Li	      8.12744      8.35321      8.41585         0.073751     -0.010604      0.010157
Li	      6.15631      6.36318      8.38206         0.010085      0.046755      0.037742
V	      6.19881      4.27037     10.45774         0.049722     -0.091861     -0.157146
Cr	      4.18623      4.08813      4.20171        -0.032904      0.012931      0.077678
Cr	      8.27701      6.20572      6.37823         0.013954     -0.021178      0.030588
Cr	      4.18866      6.21467      6.37315         0.038875     -0.076485     -0.036968
Fe	      8.19528      2.09914      6.40212         0.057979     -0.000531     -0.185997
Fe	      8.31567      6.23018     10.43325         0.015003      0.032141      0.060028
Ni	      6.23015     10.32604      8.46320        -0.039621      0.093922     -0.012302
Ni	      2.14514      4.08217      2.11872        -0.013965     -0.035428      0.014129
Ni	      6.23218      4.14184      6.27052        -0.024400     -0.008228      0.140343
O	      6.20751      8.42200      8.45460        -0.035195     -0.135577      0.010156
O	      2.09647      2.00067      1.99424         0.032329     -0.044087      0.115932
O	      4.19207      4.10243      2.23347         0.022644      0.004497     -0.022523
O	      4.12087      2.13775      4.38398         0.022351     -0.031917     -0.015727
O	      6.12937      4.15735      4.21275         0.012145     -0.008156      0.030671
O	      6.21285      2.09535      6.32788        -0.044869     -0.143189      0.000350
O	      8.27685      4.14125      6.40281         0.144858      0.012544     -0.097736
O	      2.01530      4.18951      4.18887        -0.013129     -0.042237      0.112831
O	      4.10769      6.21868      4.29966         0.051102     -0.013879      0.026629
O	      4.17478      4.13625      6.25521        -0.127843      0.001841     -0.002901
O	      6.22243      6.15921      6.41750        -0.003165      0.141747     -0.031314
O	      6.27272      4.06410      8.68291        -0.066792      0.005127      0.075586
O	      8.29056      6.16910      8.47805         0.010133      0.077716     -0.134221
O	      2.14458      6.30118      6.21179        -0.008331     -0.067702     -0.029594
O	      4.12070      8.20227      6.10097         0.020902      0.039981      0.000157
O	      4.07498      6.22618      8.31777         0.069297      0.020493      0.011657
O	      6.27613      6.04420     10.55471        -0.043081      0.100144     -0.066482
O	      8.46915      8.25585     10.56553        -0.053076      0.051302      0.022373
