# total energy = -223.13655752 eV
 
CRYSTAL
PRIMVEC
0.029639 6.190908 6.326375 
6.215468 0.011926 6.344070 
4.149255 4.144676 0.002374 
PRIMCOORD
36 1
Li	      2.03654      2.01556      0.13387         0.000891      0.091226     -0.162903
Li	      6.22635     10.30582      8.38818         0.284431     -0.168182     -0.000217
Li	      6.23546      8.27251     10.52653         0.167938     -0.187888      0.049277
Li	      6.20175      2.11264      8.38413        -0.020920     -0.045063     -0.046866
Li	      8.33581      6.22454      6.42910         0.052253     -0.110401     -0.171525
Li	      0.06951      4.11383      4.18072        -0.264258      0.252358      0.099292
Li	      2.11671      6.14843      4.17892        -0.248651      0.255943      0.158925
Li	      6.21181      8.28410      6.41502        -0.035250      0.035016      0.106769
Li	      6.33519      6.26101      8.35207        -0.318959      0.021403      0.111103
V	      4.28592      6.09986     10.53001        -0.631163     -0.120865      0.270172
Cr	      0.07466      0.05010      0.06058        -0.200259     -0.084420     -1.021142
Cr	      6.23535      4.08404      6.36933         0.255892     -0.085202     -0.400746
Cr	      8.24569      8.19047      8.42141        -0.529648      0.644624      0.805160
Fe	      2.06294      2.10087      4.16707         0.048078     -0.671757      0.640742
Fe	      4.12681      4.11513      4.15878         0.768922     -0.107835      0.389199
Fe	      4.07109      6.32399      6.27335        -0.102754      0.020707      0.467414
Co	      8.23912      4.22243      8.49771         0.064564     -0.213603      0.194257
Ni	      4.25124      8.26825      8.42188         0.170071     -0.405314      0.009730
O	      2.13170      2.14648      2.21339        -0.260340      1.260887     -0.235182
O	      4.15924      4.14840      2.12376        -0.884676      0.161707      0.144832
O	      4.11519      2.02548      4.18711        -0.169912      0.556158      0.055940
O	      6.27598      4.17571      4.31459        -0.828176      0.190610     -0.076978
O	      6.24470      2.05109      6.31149        -0.077996      0.199335      0.280539
O	      8.29353      4.16171      6.13342        -0.097911      0.089055      2.049930
O	      2.18116      4.08477      4.27694        -0.389159      0.251594     -1.283360
O	      4.18304      6.13178      4.28574         0.033304     -0.014503     -0.234949
O	      4.22116      4.16629      6.34762        -0.106734     -0.046444     -0.064729
O	      6.09159      6.10482      6.26831         0.188804      0.122838     -0.140843
O	      6.17513      4.12925      8.35177         1.135945      0.126132      0.000857
O	      8.27391      6.22875      8.48439         0.267613     -1.180543     -0.197234
O	      2.11400      6.23469      6.31604        -0.036752     -0.108590      0.126851
O	      4.17396      8.29138      6.36647         0.040068      0.032844      0.039481
O	      4.15694      6.17620      8.63423        -0.003784     -0.275291     -1.813007
O	      6.29383      8.25061      8.45662         0.280532      0.123724     -0.164261
O	      6.07138      6.20352     10.68561         1.524043      0.208933      0.361467
O	      8.31969      8.45732     10.44572        -0.076047     -0.819195     -0.347994
