# total energy = -136.56932375 eV
 
CRYSTAL
PRIMVEC
2.063193 2.088288 3.953948 
4.130545 4.177004 -3.956254 
-6.219741 2.114252 0.002088 
PRIMCOORD
24 1
Li	     -1.05598      3.14731      0.98880        -0.006584      0.030767      0.001612
Li	     -5.17289      3.14656      0.99138         0.020213     -0.028725      0.001371
Li	      1.05136      5.24321      0.98114        -0.025308      0.023949      0.005452
Li	      3.09113      3.15512      0.98884         0.019417     -0.007303     -0.000900
Li	      1.01194      5.21608     -2.96464        -0.014629      0.012247     -0.010735
Li	      5.13351      5.21960      0.97999         0.003116     -0.036614     -0.001495
Mn	      1.03836      3.10582      2.96577         0.003543      0.015089     -0.003201
Mn	     -1.03267      5.26319     -0.99655        -0.011451      0.001997     -0.046620
Mn	     -3.13132      3.16213     -0.98172         0.026385     -0.011576      0.035154
Ni	      3.06301      5.22335     -1.00903         0.016516      0.003298     -0.028109
Ni	      1.03194      3.15434     -0.98128        -0.016166     -0.011430      0.026501
Ni	      1.02730      7.31729     -0.98866         0.006473      0.011403     -0.003018
O	     -1.01111      3.25316      2.95256         0.087786      0.084103     -0.001663
O	     -1.05376      7.24403     -0.98955        -0.017266     -0.070752     -0.001220
O	     -1.13268      3.23392     -0.98558        -0.086883      0.052373      0.004482
O	     -5.13274      3.15027     -0.98771         0.039117      0.006415      0.004631
O	      0.93553      5.24331     -0.97878        -0.104784     -0.004417     -0.009454
O	     -3.05451      5.15757     -0.98848         0.086269     -0.076373      0.001362
O	     -1.06114      5.24656      0.99067         0.003373      0.003243      0.012059
O	      1.03550      3.13320      1.07377         0.004541     -0.000816      0.093693
O	     -1.04614      5.24141     -2.87367        -0.014087      0.004903      0.144255
O	      3.07073      5.23312      0.96860        -0.008095      0.001160      0.015089
O	     -3.11895      3.14857      0.89315         0.004752      0.003299     -0.143955
O	     -1.02972      1.04274      0.91591        -0.016248     -0.006239     -0.095292
