# total energy = -225.76876905 eV
 
CRYSTAL
PRIMVEC
-0.021561 6.251807 6.266826 
6.262871 -0.053641 6.298826 
4.148945 4.162951 -0.009496 
PRIMCOORD
36 1
Li	      4.25191     10.28663      6.37204        -0.006962      0.014250      0.019157
Li	      6.12086      4.13686      1.99064         0.055675      0.009057     -0.106573
Li	      4.17377      2.16641      2.02815         0.028217     -0.103656      0.005061
Li	      6.18099      8.33237     10.36481         0.006223     -0.030688     -0.027220
Li	      4.27015      6.10254      2.16942         0.022981     -0.020085     -0.024284
Li	      2.02900      2.06127      4.12505         0.003336      0.066455      0.005230
Li	      4.19935      4.16852      4.05908        -0.010314     -0.016255     -0.003001
Li	      6.11136      8.41595      6.34992        -0.027380      0.044939      0.000158
Li	      4.07096      6.31746      6.25658        -0.015093      0.003860      0.031005
V	      6.18607      4.10982      6.22077        -0.880995     -0.216363      0.015502
Cr	      4.18773      2.06019      6.28832         0.173904     -0.155793      0.094757
Cr	      4.13312      8.30524      4.18442        -0.022881     -0.052137     -0.010483
Cr	      6.21570      6.26678      8.36108        -0.137662     -0.022031     -0.012821
Fe	      4.13134      0.04699      4.13397         0.311326     -0.159830     -0.125411
Fe	      2.26989      3.99290      2.11899        -0.173389      0.333724      0.020474
Fe	      2.12127      6.22806      4.29226        -0.165828      0.091394     -0.103745
Co	      2.10961      8.24540      6.33817        -0.095157      0.034278      0.094765
Co	      8.28538      8.29581      8.36377        -0.320350      0.002900     -0.489844
O	      2.09030      2.12683      2.11846        -0.015771     -0.380814     -0.100257
O	      4.10953      4.15131      2.08670         0.280735      0.015854      0.002182
O	      4.21052      1.94733      4.31132        -0.062440      0.241092      0.026936
O	      6.29700      4.15896      4.38213        -0.101265     -0.106103     -0.018056
O	      6.21739      2.24569      6.35563         0.016622     -0.137704     -0.083829
O	      8.23152      4.17870      6.32509        -0.046468      0.053011     -0.011488
O	      1.98243      4.24449      4.07866         0.050342     -0.138419      0.151859
O	      4.04044      6.32242      4.15878         0.256224     -0.060091      0.006770
O	      4.25463      4.05957      6.40469         0.720803      0.451227     -0.491316
O	      6.31641      6.06519      6.35787        -0.057791      0.231279     -0.004222
O	      6.16775      4.22054      8.34546         0.069880     -0.063326     -0.073659
O	      8.23066      6.30365      8.33294         0.056405     -0.609572      0.049597
O	      2.02236      6.26239      6.19304         0.023541     -0.135950      0.107090
O	      4.09150      8.33778      6.13314         0.090469     -0.014560      0.060073
O	      4.20660      6.08024      8.43551        -0.006267      0.616476      0.013435
O	      6.37061      8.22670      8.34926        -0.012093      0.156800     -0.013251
O	      6.21981      6.14221     10.37547        -0.010968      0.042882      0.060625
O	      8.35147      8.29224     10.33850         0.002387      0.013898      0.934785
