# total energy = -221.98545528 eV
 
CRYSTAL
PRIMVEC
0.002729 6.198063 6.273166 
6.256558 -0.005847 6.281738 
4.172568 4.139254 -0.005392 
PRIMCOORD
36 1
Li	     10.36983      4.13047      6.30142        -0.040833      0.037129      0.013792
Li	      8.35567      2.13672      6.28849        -0.002729      0.088051      0.012048
Li	      8.35254      4.14370      4.21923        -0.031368     -0.005526      0.017179
Li	      6.22301      2.08045      8.35405         0.015056      0.017630     -0.000549
Li	      8.32632      4.17335      8.33776        -0.021920      0.036562      0.010974
Li	      4.16199      4.15890      4.15172         0.021764     -0.001786     -0.068052
Li	      6.29720      4.11928      6.36171         0.019587      0.018787      0.103255
Li	      4.16774      6.23040      6.26533        -0.004578      0.002611     -0.004049
Li	      6.28235      6.10841      8.37801         0.020592     -0.030530      0.048415
V	      2.05141      6.22427      8.24575        -0.203232      0.247383      0.084221
Cr	      4.17918      8.25997      8.30930        -0.126768      0.116401      0.041906
Cr	     10.41505      8.30541     10.48950        -0.027186      0.055648      0.031910
Cr	      4.21804      4.13532      8.35653         0.072520     -0.000724      0.028697
Fe	      6.24778      1.99227      4.26681         0.033281      0.152865     -0.077389
Fe	      6.20411      6.16386      4.18766         0.115806     -0.051108     -0.038957
Fe	      8.35817      6.12981      6.35193         0.031057      0.031313     -0.026831
Ni	      2.13613      6.16278      4.16240         0.018659     -0.014334      0.093422
Ni	      6.25034      8.23177      6.24607         0.041043      0.029856      0.048824
O	      2.16392      2.00200      2.13048         0.082225     -0.057938     -0.122675
O	      4.28198      4.05405      2.07034         0.130291     -0.120496     -0.019526
O	      4.19212      2.06381      4.09455        -0.064981      0.005679     -0.027210
O	      6.26339      4.13872      3.97632        -0.004832     -0.080722     -0.054573
O	      6.12743      2.10244      6.18179         0.096211      0.026691      0.139077
O	      8.32455      4.32835      6.30551         0.018654     -0.281952     -0.007964
O	      2.00232      4.10064      4.20279         0.025930     -0.081146     -0.122946
O	      4.22977      6.27431      4.22943        -0.032174      0.007263     -0.006078
O	      4.13782      3.94732      6.36541         0.086431      0.156902      0.033835
O	      6.41293      6.18260      6.16528        -0.111983     -0.098844      0.070214
O	      6.15004      4.15766      8.50786         0.053052     -0.061361      0.005006
O	      8.35625      6.28492      8.35247        -0.033517     -0.037615      0.022052
O	      2.10520      6.17628      6.40710         0.030296      0.029741     -0.108607
O	      4.20760      8.27066      6.29147        -0.122235     -0.003591     -0.091099
O	      4.08449      6.19854      8.32071        -0.074293     -0.060268     -0.052391
O	      6.24993      8.32447      8.40684         0.048029     -0.019846      0.001257
O	      6.32768      6.22235     10.47199        -0.118836     -0.148606      0.016205
O	      8.32836      8.24931     10.41943         0.060984      0.095881      0.006605
