# total energy = -225.03455688 eV
 
CRYSTAL
PRIMVEC
0.022367 6.228061 6.347563 
6.232740 0.014916 6.354837 
4.173434 4.174483 -0.008107 
PRIMCOORD
36 1
Li	      2.08729      2.06108      0.09855        -0.011754      0.032864      0.012920
Li	      2.07131      0.04445      2.09371        -0.037309     -0.007940      0.012612
Li	      4.05935      2.12285      2.09102        -0.016830      0.022649     -0.001217
Li	      6.28295      8.29547     10.61031        -0.001438      0.015377      0.040839
Li	      2.15281      4.08292      2.19123         0.017611     -0.017923     -0.003807
Li	      2.09391      2.13596      4.14925         0.017256     -0.046164     -0.078161
Li	      8.33072      6.29516      6.37483         0.004292     -0.023760     -0.029779
Li	      6.20139      4.16853      6.36925         0.045047     -0.053672     -0.015203
Li	      6.27794      8.27411      6.33410         0.010202     -0.024611      0.003423
V	      8.14814      4.30859      4.37996        -0.014559     -0.011543      0.097403
Cr	      4.12840      4.11425      4.22144         0.083688     -0.076496      0.011877
Cr	      0.05197      4.16115      4.22809        -0.024249      0.019467      0.010728
Cr	      6.26476      6.26845      8.44773        -0.063417      0.027576     -0.036547
Fe	      0.17985      6.21578      6.41717        -0.205578     -0.076645     -0.010981
Fe	      0.16163      2.06305      2.00699        -0.136345     -0.000194     -0.030888
Fe	      4.20933      6.28249      6.36276         0.010085      0.055680     -0.008489
Fe	      8.24361      8.32045      8.39227         0.089048      0.128005      0.007177
Cu	      2.12036      6.22347      4.32272        -0.027784      0.033884     -0.070421
O	      2.02359      2.10609      2.08354         0.129922     -0.014535      0.048469
O	      4.16928      4.21676      2.20070         0.015864     -0.021948      0.245453
O	      4.14172      1.97689      4.21321         0.015007      0.039656      0.011980
O	      6.35421      4.15526      4.22808        -0.058800      0.020893     -0.014633
O	      6.21991      1.98483      6.41846        -0.033583      0.179934      0.010046
O	      8.32396      4.19689      6.11079        -0.074720      0.019093     -0.124356
O	      2.12622      4.10182      4.22781        -0.017542      0.049755      0.011569
O	      4.23908      6.21635      4.24864         0.026950      0.024000     -0.018556
O	      4.17631      4.22191      6.28380         0.022606     -0.008489      0.029669
O	      6.16289      6.22762      6.48436         0.083698     -0.000795      0.066330
O	      6.19059      4.16628      8.54600        -0.011693      0.057358      0.057352
O	      8.30593      6.33522      8.50256         0.005916     -0.057198      0.224187
O	      2.15965      6.24409      6.30288         0.203299      0.007320     -0.173836
O	      4.17606      8.34457      6.21297         0.033393     -0.146002     -0.058199
O	      4.21900      6.21769      8.45313         0.016680     -0.014618      0.002011
O	      6.33349      8.25015      8.49125        -0.055442     -0.064662     -0.048503
O	      6.09263      6.18685     10.52490        -0.060731     -0.067809     -0.200909
O	      8.42624      8.56671     10.46478         0.021208      0.001493      0.020442
