# total energy = -224.81613594 eV
 
CRYSTAL
PRIMVEC
-0.016655 6.388590 6.320535 
6.299196 0.011007 6.292751 
4.203711 4.244510 0.003324 
PRIMCOORD
36 1
Li	      4.13234      2.20939      2.22921        -0.074577      0.048756      0.038688
Li	      2.12065      4.27522      2.36056         0.010948      0.006944      0.043403
Li	      2.00544      2.36984      4.22684        -0.053989      0.083620      0.008481
Li	      3.98331      4.35778      4.25082        -0.081038      0.078087      0.008126
Li	      4.08272      2.24592      6.24148        -0.061495      0.070037     -0.032639
Li	      0.22618      4.04672      4.19850         0.126486     -0.090494      0.008250
Li	      2.27786      6.13124      4.19167         0.088551     -0.100971      0.002037
Li	      2.18534      4.16525      6.07325         0.037795     -0.056325     -0.060894
Li	      4.24927      6.31941      6.02722         0.013545     -0.028146     -0.040696
V	      2.20975      8.47120      6.31072         0.262329      0.073510      0.006222
Cr	      4.18750      0.04061      4.20913         0.017307      0.182276     -0.037814
Cr	      6.25275      2.13998      4.21791        -0.170175     -0.046889     -0.010291
Cr	      6.31001      6.39078      8.41383         0.001640     -0.001448     -0.035727
Fe	      4.21150      4.24189      0.02400        -0.033776     -0.145840     -0.089207
Fe	      2.06780      0.04969      2.09875         0.053864     -0.152645      0.110693
Fe	      6.20536      4.40189      6.28624         0.063910     -0.055826     -0.048220
Fe	      8.41061      8.43729      8.36961        -0.023221      0.094117      0.083391
Ni	      4.16952      6.35935      2.23620        -0.008450     -0.025808     -0.112403
O	      2.09370      4.25150      4.22763        -0.001433     -0.004606     -0.029816
O	      2.07126      2.02115      1.94235         0.040601     -0.003204      0.036110
O	      4.28308      4.25355      1.97686        -0.033303     -0.035688      0.046097
O	      4.29150      2.01208      4.21795         0.060148     -0.079552      0.027044
O	      6.37301      4.16390      4.19641        -0.020052     -0.030028     -0.017110
O	      6.42845      2.12710      6.25777        -0.016933      0.050122     -0.025885
O	      8.40131      4.13910      6.24038        -0.054436     -0.014858     -0.045522
O	      4.22446      6.36107      4.15678        -0.020390      0.005139      0.126149
O	      4.28067      4.25380      6.39353        -0.060986     -0.001936     -0.035860
O	      6.29434      6.31393      6.43849         0.019249      0.089804      0.045153
O	      6.23203      4.34078      8.32713         0.025207      0.053151      0.086167
O	      8.31965      6.48954      8.42371        -0.096398     -0.053677     -0.001883
O	      2.00541      6.50249      6.38468         0.075538     -0.045681     -0.000201
O	      4.00158      8.60638      6.29380        -0.092441      0.053035     -0.039826
O	      4.17998      6.30862      8.51908         0.013919     -0.037325      0.033441
O	      6.34199      8.49480      8.50514         0.006564      0.027798      0.034235
O	      6.18713      6.50688     10.53209        -0.011424      0.055101     -0.001376
O	      8.28520      8.61681     10.57493        -0.003083      0.039447     -0.078313
