# total energy = -228.91713014 eV
 
CRYSTAL
PRIMVEC
-0.011115 6.322005 6.296989 
6.335267 -0.013969 6.299870 
4.219291 4.212429 -0.005178 
PRIMCOORD
36 1
Li	      4.27326      6.25956     10.46916         0.031853     -0.055752     -0.031714
Li	     10.37522      6.47787      8.40946        -0.013434     -0.008693      0.016004
Li	      8.39789      6.35848      6.44863        -0.085696      0.018387      0.033674
Li	      6.27216      4.23878      6.46579        -0.001077      0.026125     -0.028055
Li	      6.24289      4.21743     10.33237        -0.069713      0.059665      0.003173
Li	      8.44365      6.37406     10.33192        -0.001132      0.032846     -0.030267
Li	      4.28455      6.25058      6.31944         0.043712     -0.043144      0.034140
Li	      4.41459      4.09714      8.37791        -0.008690     -0.020196     -0.003566
Li	      6.39446      6.16301      8.38281         0.043000      0.010008     -0.034229
V	      4.21592      4.27295      4.25063         0.218471      0.151806      0.229015
Cr	      6.31295      0.01106      6.29557        -0.053460      0.018702     -0.059967
Cr	      8.33609      4.30110      8.41149        -0.086119     -0.049552     -0.044447
Cr	      2.12649      4.20009      6.27292        -0.053037     -0.065936      0.215848
Fe	      8.43004      8.43918     12.49720         0.091136     -0.033539      0.073222
Fe	      2.18024      6.31938      8.41790         0.014458     -0.015044     -0.118304
Fe	      4.22558      8.33796      8.40841         0.050972      0.042928     -0.027305
Fe	      6.38394      8.31995     10.49233        -0.068641      0.180469     -0.027070
Fe	      6.22865      6.28380      4.29635         0.043743     -0.099160     -0.102101
O	      2.17720      2.08516      2.09467         0.015656      0.023641      0.022626
O	      4.22928      4.14739      2.09690        -0.035962      0.005965     -0.011670
O	      4.26200      2.21977      4.09635         0.025295     -0.043564      0.047189
O	      6.30298      4.20296      4.12870         0.013388     -0.056175     -0.040034
O	      6.43539      2.02267      6.22137        -0.094598      0.026399      0.061560
O	      8.53283      4.10477      6.41085         0.013476      0.051204     -0.034430
O	      2.12916      4.12569      4.21828         0.115189      0.090235     -0.006026
O	      4.28718      6.20692      4.16971        -0.163227     -0.038039     -0.039101
O	      4.10677      4.21474      6.19163        -0.112702      0.017007     -0.134578
O	      6.31892      6.43072      6.20026        -0.011703     -0.007403      0.159058
O	      6.41290      4.20577      8.39061         0.014209     -0.034849      0.020256
O	      8.43790      6.21033      8.39707        -0.021622     -0.001841     -0.006129
O	      2.01136      6.30898      6.38073        -0.014842      0.044005      0.031282
O	      4.22513      8.51546      6.35044        -0.045381      0.035379     -0.032795
O	      4.11144      6.40593      8.38056         0.114698     -0.106511      0.014585
O	      6.26826      8.48818      8.35748         0.023976     -0.000715     -0.027377
O	      6.27868      6.40760     10.61319         0.015120     -0.129076     -0.002892
O	      8.37065      8.42641     10.57248         0.052684     -0.025584     -0.119572
