# total energy = -236.36606908 eV
 
CRYSTAL
PRIMVEC
0.002096 6.172464 6.279626 
6.415179 -0.010928 6.293031 
4.269869 4.117075 -0.000268 
PRIMCOORD
36 1
Li	      0.19028      6.09801      6.30958         0.017926      0.035924      0.000310
Li	      2.12075      6.14068      8.27009         0.012767     -0.011970      0.007759
Li	      4.33724      8.28907      8.23653         0.076524      0.022837     -0.007573
Li	      2.14830      4.09520      2.24138         0.004706      0.015688      0.002829
Li	      4.10529      4.17581      4.27774        -0.094831     -0.008850     -0.000681
Li	      6.29708      4.15373      6.25814        -0.042071     -0.056618      0.005939
Li	      2.22473      6.01964      4.37583        -0.030651     -0.015834      0.031812
Li	      2.11471      4.20313      6.23315         0.031758     -0.004537      0.031980
Li	      4.20835      6.19276      6.26330        -0.012793     -0.040392      0.046483
Mn	      4.23089      2.07779      6.26526         0.094076     -0.020003     -0.063776
V	      4.25749      0.02824      4.17747        -0.009477      0.244978     -0.096743
V	      4.29019      6.04184      2.08488        -0.053874      0.056013     -0.132750
Cr	      2.19456      8.18001      6.35053        -0.075896      0.053196     -0.081051
Cr	      6.44514      2.07526      4.20999        -0.034618      0.033719      0.074850
Cr	      4.31866      8.19799      4.24009        -0.034935      0.120912      0.000104
Cr	      6.43628      6.14563      8.32620        -0.035002      0.007799      0.101607
Co	      6.35106      6.18343      4.24647         0.026947     -0.044201      0.013268
Co	      4.24203      4.13067      8.26773        -0.061435      0.050724      0.000437
O	      1.96723      2.09316      2.06815        -0.005168     -0.033889     -0.087039
O	      4.22188      4.29224      2.11268        -0.023923     -0.131730      0.018088
O	      4.40331      2.02349      4.24736         0.076861     -0.012337      0.015756
O	      6.59786      4.09997      4.12742         0.018058     -0.279380      0.006394
O	      6.52715      2.07924      6.30546         0.033438      0.013070      0.031077
O	      8.60539      4.17461      6.05861         0.020894      0.009305      0.099221
O	      1.99429      4.05187      4.21989         0.021151      0.147386     -0.021660
O	      4.23249      6.22337      4.04736        -0.006711     -0.032028      0.175619
O	      4.27505      3.96079      6.26000         0.021542      0.052777     -0.004567
O	      6.38742      6.11331      6.34427        -0.034726      0.007504      0.027646
O	      6.34082      4.05830      8.47679        -0.029595     -0.001256     -0.008288
O	      8.54428      6.11767      8.25833        -0.005339      0.008987     -0.076478
O	      2.17181      6.25761      6.31758         0.019941     -0.026090      0.016286
O	      4.16605      8.25220      6.21839         0.050761     -0.016695      0.036507
O	      4.42601      6.19686      8.55510         0.034484     -0.068568     -0.050055
O	      6.46385      8.14044      8.51838         0.054106     -0.010994     -0.096794
O	      6.35844      6.17723     10.38373        -0.054540     -0.081079      0.000133
O	      8.52402      8.30338     10.55010         0.029647      0.015632     -0.016651
