# total energy = -236.32044822 eV
 
CRYSTAL
PRIMVEC
0.015692 6.216315 6.344858 
6.331708 0.010670 6.350046 
4.233805 4.160863 -0.005861 
PRIMCOORD
36 1
Li	      4.28679     10.18230      6.31173         0.037453      0.095013     -0.001285
Li	      2.35583      8.26823      6.29706        -0.007804     -0.012030     -0.058641
Li	      4.26093      8.28730      8.22580         0.020230      0.051527     -0.042808
Li	      6.44341      8.22325     10.50194        -0.020582     -0.007218      0.009663
Li	      2.14262      4.10611      2.08278         0.026595     -0.041940      0.034246
Li	      4.13141      8.35390      4.46058        -0.083031     -0.014579      0.056820
Li	      6.10822      8.37214      6.36417        -0.020450     -0.006012      0.020234
Li	      4.16733      6.49426      6.37494        -0.018739     -0.007976     -0.046752
Li	      8.44027      8.34600      8.58265        -0.029993     -0.000159     -0.015332
Mn	      4.26631      4.12793      4.19258        -0.021672     -0.030105      0.044924
V	      2.08801      2.17726      4.22947         0.013639     -0.012280      0.044454
V	      8.49416      6.18356      6.36973         0.103834      0.042480     -0.051927
Cr	      6.34190      2.12904      8.49152        -0.013526     -0.006347     -0.044105
Cr	      6.34285      4.14303      6.34892        -0.049547     -0.126895     -0.061758
Cr	      8.43230      6.30052     10.65630         0.068857      0.029270      0.057676
Cr	      6.28969      6.27746      8.48070         0.024322      0.068249     -0.047934
Fe	      2.20041      6.08636      8.25149        -0.018191      0.161420      0.129980
Co	      8.51671     10.24937     10.53986         0.100902     -0.017953     -0.004090
O	      4.23217      8.34023      6.35050        -0.002951      0.020542      0.014472
O	      1.99808      2.01261      2.27004         0.003653      0.006889     -0.117386
O	      4.34031      4.26183      2.23555        -0.015552     -0.011484      0.011650
O	      4.15259      1.97659      4.40008         0.082060      0.025900      0.007550
O	      6.26358      4.26222      4.28915        -0.082966     -0.097515      0.007961
O	      6.21472      2.13383      6.47987        -0.015499      0.025194      0.006227
O	      8.38002      4.30546      6.33592        -0.066484     -0.029855      0.003750
O	      2.29810      4.13412      4.21444         0.067527      0.168090     -0.009574
O	      4.19281      6.30976      4.13542        -0.088880      0.013612      0.034636
O	      4.33073      3.95868      6.20106         0.054066      0.033767      0.000623
O	      6.43409      6.18166      6.34448        -0.028951     -0.037328      0.138565
O	      6.34088      4.18501      8.30437        -0.002181      0.059847      0.004972
O	      8.44278      6.25381      8.41496        -0.039797     -0.020778      0.101375
O	      2.14073      6.22362      6.33824         0.005003      0.006511     -0.198159
O	      4.23344      6.21457      8.50257         0.083870      0.000816      0.012084
O	      6.35725      8.32638      8.45239        -0.011030     -0.238992      0.020567
O	      6.44753      6.21087     10.43666        -0.041215     -0.001283     -0.044223
O	      8.41885      8.26156     10.61060        -0.012972     -0.088400     -0.018455
