# total energy = -234.05470007 eV
 
CRYSTAL
PRIMVEC
0.001285 6.260898 6.316974 
6.197935 -0.007688 6.326310 
4.147763 4.195427 -0.020823 
PRIMCOORD
36 1
Li	      6.09191      0.14077      6.30200         0.065043      0.036560      0.009027
Li	      8.18961      2.18180      6.29434         0.048564     -0.049726      0.004130
Li	      4.07436      2.12368      2.15772         0.007527      0.018082      0.042638
Li	      8.36254      4.19844      4.30873         0.028939      0.007264     -0.013469
Li	      6.20342      2.01390      4.38752         0.004871      0.009709     -0.050384
Li	      6.22687      2.02392      8.28366         0.024475     -0.013568     -0.037892
Li	      4.26538      1.97566      6.29378        -0.040216      0.041248     -0.036562
Li	     10.27800      8.40366     10.53967         0.035063      0.021747      0.042415
Li	      4.12068      6.27226      6.32325        -0.057551      0.010049      0.006332
Mn	      8.28791      6.34401     10.56978         0.007249     -0.016025     -0.008001
V	      6.06325      8.36937      6.30154        -0.213676      0.041749     -0.051867
V	      4.13554      4.14414      4.19798        -0.002281      0.012767      0.015656
Cr	      2.08621      0.03686      2.09224        -0.052440     -0.010323     -0.012086
Cr	      6.19978      6.29676      4.20285        -0.009529      0.012412     -0.085162
Cr	      6.27923      4.10171      6.27558         0.024035      0.044905     -0.024590
Cr	      4.17035      4.12992      8.40747         0.052839     -0.009570     -0.046812
Fe	      6.17086      6.26677      8.47344         0.022687      0.068140     -0.085219
Ni	      8.32295      4.14691      8.32192         0.040283     -0.047884     -0.062958
O	      2.08061      2.03861      2.22848        -0.033166     -0.103783      0.105801
O	      4.21016      4.18609      2.21023         0.121480     -0.034218     -0.017956
O	      4.02517      2.20536      4.22398        -0.045387     -0.157004     -0.003857
O	      6.19703      4.29249      4.19684         0.050550     -0.042624     -0.052653
O	      6.22227      2.19386      6.29707         0.027886     -0.053077      0.015892
O	      8.23378      4.15098      6.33499        -0.032753      0.060711     -0.080337
O	      2.03784      4.16314      4.25520         0.022917      0.114186      0.081138
O	      4.07388      6.16875      4.24771         0.023188      0.103157      0.019868
O	      4.08283      4.17017      6.30793         0.052138      0.009432      0.076488
O	      6.18671      6.31766      6.29255         0.002342     -0.020476      0.010012
O	      6.18714      4.24286      8.28503        -0.134397     -0.025182      0.044286
O	      8.18553      6.28669      8.38979        -0.003244      0.064409     -0.008980
O	      2.07911      6.14744      6.41120        -0.017641      0.030816      0.033979
O	      4.32711      8.34662      6.30797         0.018934     -0.013835      0.021406
O	      4.15451      6.15842      8.44064        -0.074536     -0.037116     -0.003398
O	      6.28482      8.37807      8.29156         0.034997     -0.000211      0.063433
O	      6.32690      6.28517     10.42968         0.067507      0.002086      0.057862
O	      8.33750      8.26908     10.35837        -0.066696     -0.074805      0.031820
