# total energy = -237.39509560 eV
 
CRYSTAL
PRIMVEC
0.036554 6.365341 6.260507 
6.258734 0.024152 6.273320 
4.193400 4.272945 -0.004923 
PRIMCOORD
36 1
Li	      2.11694      6.36568      8.31907         0.016534      0.031107     -0.026927
Li	     10.27096      6.37734      8.42095         0.044229     -0.040292      0.038595
Li	      8.42720      4.48895      8.43964         0.010980     -0.056337      0.027467
Li	      2.05746      2.22325      4.13903        -0.002140      0.011279     -0.071481
Li	      8.28962      6.45721      6.49547        -0.032403     -0.041247     -0.079146
Li	      8.41537      6.31945     10.23877        -0.004834     -0.036487      0.112683
Li	      2.17839      4.22046      6.27617         0.000503      0.039217      0.002214
Li	      8.28004      8.27811      8.32642        -0.030450      0.012104     -0.015313
Li	      6.50802      6.48527      8.31353        -0.096399     -0.006058      0.005040
Mn	      4.20560      4.33604      0.09128         0.020329      0.000672     -0.017731
V	      6.26893      4.29367      6.48137        -0.065427      0.040927      0.123287
V	      4.19893      6.35668      6.29556        -0.030065      0.011823      0.085723
Cr	      4.16277      6.39306     10.37218         0.021463      0.103900     -0.080302
Cr	      6.34882      8.48830     10.36812        -0.023241     -0.075124     -0.069694
Cr	      4.13468      4.28733      4.15470        -0.017353      0.023122      0.057770
Cr	      6.35792      4.24633     10.35019         0.014473     -0.016669      0.019632
Fe	      2.08501      2.11308      0.10733         0.052340      0.027455     -0.090375
Fe	      4.24797      8.52857      8.34362        -0.000021      0.020824     -0.075803
O	      2.21507      2.16397      2.00588        -0.023570      0.043477      0.111008
O	      4.20574      4.20090      2.17969         0.055802      0.052237      0.054919
O	      4.27882      2.15144      4.12125         0.006211     -0.007137      0.082272
O	      6.24920      4.13691      4.29135         0.020206      0.017275      0.010731
O	      6.35030      2.22993      6.15857        -0.046328      0.039502     -0.021652
O	      8.25272      4.23813      6.13106        -0.024239     -0.018424     -0.029868
O	      2.09808      4.22432      4.23360         0.021544      0.027635     -0.035458
O	      4.22594      6.39732      4.27231         0.018182     -0.006037     -0.078792
O	      4.28320      4.29426      6.18531         0.030218     -0.044576     -0.032053
O	      6.19663      6.19174      6.26570         0.050978     -0.029966     -0.014392
O	      6.29537      4.22455      8.28864        -0.005681     -0.039011     -0.032095
O	      8.39379      6.40113      8.35409        -0.021759     -0.034931      0.002011
O	      2.18768      6.50066      6.24873        -0.008642     -0.020654     -0.015731
O	      4.19488      8.49022      6.16279         0.000139      0.010897     -0.033387
O	      4.18205      6.51023      8.34940         0.002007     -0.044020      0.054564
O	      6.23839      8.52565      8.39847         0.061450      0.017710      0.047092
O	      6.16585      6.36379     10.44754        -0.015004      0.005627     -0.050514
O	      8.42664      8.67297     10.42878        -0.000032     -0.019822      0.035710
