# total energy = -238.88854605 eV
 
CRYSTAL
PRIMVEC
0.023553 6.211806 6.264483 
6.364823 -0.007785 6.295544 
4.233321 4.151533 0.005209 
PRIMCOORD
36 1
Li	      2.17847      8.22689      6.27858         0.005470     -0.048546      0.055271
Li	     10.45339      6.29282      8.41936        -0.086952      0.037760      0.073747
Li	      8.42052      4.29302      8.45833        -0.007167      0.045240      0.055375
Li	      8.42918      6.24292      6.47992        -0.033136      0.026454      0.014018
Li	      0.09226      4.09637      4.16388        -0.007226      0.002262     -0.030340
Li	      8.47796      6.19366     10.41726        -0.001394     -0.006436     -0.031842
Li	      6.27998      8.27467      6.21958        -0.009849      0.016975     -0.042091
Li	      4.31237      6.28420      6.23386        -0.001956      0.006390     -0.021795
Li	      6.49052      6.16129      8.27290        -0.001711     -0.009748     -0.017414
Mn	      2.17586      6.21260      8.26779        -0.065762      0.031068     -0.129147
V	      8.54544     10.32006     10.49953         0.297042     -0.126762      0.004253
V	      4.16070      4.21841      4.27832        -0.184646      0.052714     -0.062382
Cr	      4.21051      4.15946      0.04606         0.184373     -0.033664      0.007859
Cr	      4.27275      8.25095      8.29128        -0.002646      0.061583     -0.086975
Cr	      6.43078      8.23978     10.46770         0.089368     -0.137391      0.025555
Cr	      6.32569      6.25673      4.23143        -0.112609      0.130340     -0.007674
Cr	      6.38681      4.13618      6.36665        -0.084074     -0.009312      0.251471
Co	      4.30324      4.09521      8.32805         0.100136     -0.178563      0.007278
O	      2.25112      1.92504      2.16761         0.069203     -0.057567      0.037070
O	      4.20197      4.05824      2.13890         0.008514     -0.065750     -0.043576
O	      4.29212      2.07072      4.09561        -0.018233     -0.119246     -0.020478
O	      6.37270      4.10995      4.20208        -0.005146      0.026405      0.006534
O	      6.40054      2.06558      6.17861        -0.038832      0.018812     -0.019397
O	      8.46892      4.14675      6.20417        -0.003673     -0.016402     -0.163904
O	      2.16206      4.05379      4.18915         0.054898     -0.093487      0.000019
O	      4.35883      6.11962      4.17669         0.087900      0.029612     -0.037005
O	      4.37337      4.12431      6.26634         0.083240     -0.022410      0.154447
O	      6.38033      6.11845      6.18932         0.061394     -0.036752     -0.073399
O	      6.23359      4.13349      8.30649         0.018211      0.022280     -0.116519
O	      8.46196      6.38596      8.40223        -0.007176      0.171070     -0.020772
O	      1.99352      6.21796      6.35207        -0.063406      0.005807      0.084262
O	      4.22414      8.37416      6.35834        -0.017242      0.003548      0.039388
O	      4.30562      6.20382      8.44621        -0.012880     -0.019891      0.071040
O	      6.38282      8.39078      8.41401        -0.058317      0.034060      0.043846
O	      6.35216      6.26622     10.59680        -0.143270      0.099353      0.068595
O	      8.42539      8.33081     10.30587        -0.092447      0.160195     -0.075321
