# total energy = -237.15417801 eV
 
CRYSTAL
PRIMVEC
0.024317 6.175461 6.502856 
6.130719 0.004861 6.523492 
4.088822 4.131795 0.001543 
PRIMCOORD
36 1
Li	      2.13055      6.18774      8.61598        -0.070184      0.013170     -0.007788
Li	      2.05335      4.09565      2.30742        -0.018592     -0.037252      0.055513
Li	      2.08030      2.15490      4.36406        -0.023293     -0.052320     -0.087723
Li	      4.01004      4.10459      4.42253         0.044500      0.059995      0.014914
Li	      4.05964      2.12107      6.53151         0.089627     -0.029530      0.022786
Li	      0.10023      4.11005      4.31786        -0.051957     -0.072675     -0.012223
Li	      2.07234      6.07743      4.35846         0.077735      0.004542      0.022854
Li	      4.10690      6.10621      6.55411        -0.032874      0.030928     -0.058189
Li	      4.08620      4.17347      8.57989         0.004892      0.004526     -0.058945
Mn	      6.17101      8.27000     10.79230         0.060693      0.229806      0.045446
V	      4.01481      6.18230      2.33459         0.291823     -0.003569      0.120796
V	      6.20814      6.14634      8.65422         0.070235     -0.004853     -0.119155
Cr	     10.17307      4.16113      6.53400        -0.088388      0.033882      0.024915
Cr	      2.07886      8.20257      6.52834         0.025000     -0.003388     -0.071018
Cr	      4.06906      2.08076      2.16983        -0.114301      0.244537      0.113334
Cr	      6.10209      4.17450      6.51933         0.065126     -0.188582     -0.161095
Cr	      2.13327      4.10763      6.40680        -0.039329      0.120952     -0.073169
Cu	      4.05645      0.00648      4.31438        -0.078944      0.013270     -0.058528
O	      2.03637      2.02244      2.06162         0.135874     -0.013399     -0.086036
O	      4.07819      4.16981      2.02684         0.013515     -0.165135     -0.116373
O	      4.19467      2.06338      4.15110         0.060063      0.112756     -0.046681
O	      6.18184      4.03469      4.50608        -0.424995     -0.038298      0.133777
O	      6.16341      2.07250      6.67705        -0.019076      0.006826     -0.072041
O	      8.15039      4.02688      6.61781         0.025758      0.042079      0.213292
O	      2.03813      4.10287      4.49878         0.028855      0.012665     -0.040085
O	      4.14267      6.19475      4.06832        -0.043673     -0.028304      0.111976
O	      4.11471      4.13551      6.47071         0.014641     -0.028583      0.128636
O	      6.19008      6.17096      6.56873        -0.027224      0.060362      0.531101
O	      6.09831      4.10289      8.59407         0.009830      0.210358     -0.069952
O	      8.21051      6.18895      8.72207        -1.000112     -0.006966     -0.024188
O	      1.97431      6.16548      6.47584        -0.001153     -0.046379      0.036192
O	      4.10380      8.33158      6.59468         0.035048     -0.031756      0.044440
O	      4.20776      6.27802      8.58872         0.647758     -0.156268     -0.120111
O	      6.12781      8.20001      8.56717        -0.014020     -0.062005     -0.018541
O	      6.08328      6.28358     10.91340         0.390838     -0.021717     -0.342221
O	      8.10338      8.27175     11.04257        -0.043695     -0.209677      0.024088
