# total energy = -243.77143387 eV
 
CRYSTAL
PRIMVEC
0.014784 6.294016 6.227096 
6.309046 0.002034 6.239811 
4.219818 4.218291 -0.012501 
PRIMCOORD
36 1
Li	     10.44564      4.27261      6.24252        -0.026070      0.030988      0.009797
Li	      8.31506      4.29671      4.21473        -0.018114      0.013608     -0.005945
Li	      6.25375      2.19085      4.21518         0.020052     -0.008703      0.011406
Li	      4.25539      6.29597      2.11601        -0.023280     -0.045814     -0.009695
Li	      2.15722      4.17212      2.12037         0.109359      0.002806     -0.001320
Li	      6.31176      6.26723      4.10020        -0.043942      0.020012      0.023639
Li	      4.27339      4.20470      4.09573        -0.024461      0.020075      0.000479
Li	      6.37716      4.17016      6.06363        -0.009999      0.013906     -0.050184
Li	      0.08833      4.16669      4.07934         0.004539     -0.006331      0.009889
Mn	      6.36302      6.26200      8.36874        -0.050299     -0.069900     -0.013907
V	      8.31478      2.24028      6.17738         0.131346      0.071653      0.071776
V	      8.51258      8.42669      8.38647        -0.128006      0.081559     -0.026922
Cr	      6.24727      4.26212      2.18862         0.001626     -0.012933     -0.183241
Cr	      4.17453      2.15055      2.18736        -0.058104     -0.017948     -0.065705
Cr	      4.32345      2.02366      6.15202         0.017631      0.013270      0.124059
Cr	      2.14727      6.25400      4.10191         0.144323     -0.113990      0.005441
Cr	      2.07348      4.19624      6.17396        -0.018161      0.043391     -0.073149
Cr	      4.24651      6.28035      6.16094         0.046938     -0.036542      0.038214
O	      2.17278      2.04959      2.00337         0.052178     -0.079540     -0.108517
O	      4.30125      4.08950      2.06263         0.048214     -0.054104      0.021709
O	      4.20332      2.09412      4.19616         0.016677     -0.030818     -0.061934
O	      6.31763      4.22877      4.06447         0.027306     -0.021128      0.080108
O	      6.33664      2.09081      6.23865        -0.281348      0.083756      0.038661
O	      8.44608      4.23110      6.23994        -0.094767      0.066584     -0.049484
O	      2.09876      4.27661      4.23887         0.001909      0.017304      0.010807
O	      4.15656      6.31341      4.23838        -0.059463     -0.042007     -0.053240
O	      4.09378      4.18540      6.34159        -0.010329     -0.004298     -0.111438
O	      6.32143      6.40281      6.32615         0.039780      0.029599      0.017392
O	      6.16662      4.31231      8.28064         0.249271      0.157224      0.015132
O	      8.49721      6.36512      8.27235        -0.023127     -0.068590      0.010327
O	      2.20557      6.29685      6.18372        -0.034748     -0.112540      0.017998
O	      4.21457      8.30134      6.33160         0.159574     -0.019048     -0.010534
O	      4.14049      6.32185      8.24142        -0.028149      0.084413      0.037437
O	      6.31137      8.42425      8.23696        -0.061094      0.022306      0.048555
O	      6.46472      6.27573     10.24271        -0.071432      0.001997      0.013637
O	      8.43263      8.30900     10.35475        -0.005829     -0.030213      0.218753
