# total energy = -239.13912707 eV
 
CRYSTAL
PRIMVEC
-0.000181 6.368265 6.146138 
6.385692 -0.007901 6.154284 
4.246079 4.239526 0.006086 
PRIMCOORD
36 1
Li	      6.39235      4.22332      2.10680        -0.027377      0.046348     -0.030912
Li	      4.27975      8.44300      8.22942        -0.002435     -0.041056     -0.035946
Li	      6.45597      8.52630     10.11693         0.027508     -0.058762     -0.059803
Li	      6.22914      6.36569      4.05598        -0.044911     -0.005077     -0.000718
Li	      4.23833      4.37624      4.04587         0.011773      0.076275     -0.016651
Li	      4.23158      8.35651      4.12426        -0.028419      0.051352      0.094148
Li	      2.27393      6.37870      4.12279        -0.036695      0.011880      0.058799
Li	      4.17947      6.40529      6.05618        -0.064199      0.069680      0.034913
Li	      8.45309      8.54463      8.29631        -0.011981      0.047462     -0.010951
Mn	      6.32766      4.27296      6.10876        -0.059534     -0.024441     -0.255526
Mn	      2.12166      4.28191      6.10754         0.040610      0.003856      0.065319
V	      0.03534      6.34217      6.12666        -0.115954     -0.180489     -0.147056
V	      4.27069      2.17838      6.06398         0.064195     -0.022005     -0.080771
Cr	      2.16658      8.43311      6.13288         0.154820     -0.146017      0.131405
Cr	      8.46276     10.53540     10.20473         0.273328     -0.108189     -0.188272
Cr	      4.25467      6.36688      2.15161         0.190036     -0.186533      0.056643
Cr	      6.37140      6.38835      8.24897        -0.124626      0.130682      0.323058
Co	      2.13619      4.19944      2.24148         0.337338     -0.211916      0.020216
O	      2.01949      2.14692      1.99301        -0.195432      0.109842      0.067996
O	      4.22555      4.35167      1.97000        -0.302480      0.173754      0.388788
O	      4.26517      1.98424      4.28481         0.009763      0.097736      0.058142
O	      6.46641      4.22138      4.20666        -0.107121      0.013680      0.207142
O	      6.35560      2.07447      6.21473         0.102921      0.199074     -0.063521
O	      8.51697      4.19988      6.12837        -0.266021      0.018648      0.033332
O	      2.11962      4.24976      4.22239         0.035240     -0.009258     -0.009904
O	      4.24569      6.37470      4.05514        -0.022373     -0.001371     -0.001539
O	      4.29663      4.08254      6.12045         0.029940      0.024831     -0.011079
O	      6.51667      6.37392      6.22676         0.015745      0.003762     -0.082414
O	      6.40265      4.24951      8.07756        -0.024602      0.021114     -0.046939
O	      8.51131      6.28082      8.06607        -0.031236      0.068360     -0.097569
O	      2.05597      6.41420      6.14928         0.144186     -0.108236      0.023058
O	      4.17338      8.60260      6.18258         0.075677     -0.010711     -0.000314
O	      4.39161      6.35586      8.24522         0.032711     -0.024044      0.013729
O	      6.39231      8.37969      8.06801         0.041446     -0.047617     -0.015109
O	      6.26070      6.40001     10.27170        -0.106615     -0.015651     -0.310918
O	      8.48400      8.55707     10.33181        -0.015220      0.033037     -0.110774
