# total energy = -236.60450831 eV
 
CRYSTAL
PRIMVEC
0.026850 6.196151 6.646547 
6.214199 0.023383 6.650755 
4.155133 4.145182 0.003378 
PRIMCOORD
36 1
Li	      6.16446      6.20704     13.02808         0.010821     -0.025333     -0.022673
Li	      8.33502      8.38275     13.00329         0.002605     -0.016012     -0.036764
Li	      4.08060      2.05011      2.20393         0.019820      0.038727     -0.075274
Li	      4.25475      6.16471     11.04452        -0.001485     -0.019931      0.025099
Li	      6.31522      8.19113     11.15765         0.033929     -0.037626     -0.000334
Li	      8.29975      4.13843      8.68712         0.041420     -0.002675     -0.052388
Li	      6.12188      4.24936     11.01931         0.001852     -0.021442      0.033269
Li	      8.37551      8.33969      9.02930        -0.024708     -0.036488      0.002249
Li	      6.12391      6.13368      9.05148         0.033042     -0.009709      0.013445
Mn	      0.05636      2.06883      2.18213        -0.067222     -0.000028     -0.005143
Mn	      8.21071      6.29921     10.99210         0.027410      0.034967      0.015718
V	      6.14947      8.36131      6.83216        -0.089140     -0.004623     -0.089328
V	      4.18816      4.10264      4.43533         0.047143      0.107174      0.143687
Cr	      6.22874      6.24911      4.47370        -0.052540      0.030581      0.276030
Cr	      8.35863      6.16177      6.69188        -0.040664     -0.015120      0.000689
Cr	      6.28491      4.10800      6.69592         0.026522      0.024062     -0.026221
Cr	      4.10687      6.26100      6.73115         0.024775      0.041915     -0.388174
Cu	      2.12898      0.03969      2.26160        -0.082595     -0.167333      0.015951
O	      2.01708      2.05140      2.50115         0.000342      0.111645     -0.130584
O	      4.27862      4.23167      2.45727         0.031707     -0.013077     -0.212211
O	      4.06070      2.10036      4.60940         0.002414     -0.006799      0.010315
O	      6.15509      4.26296      4.66916         0.030969      0.013826      0.137748
O	      6.17451      2.13705      6.61863        -0.039893     -0.005994      0.015281
O	      8.25170      4.20399      6.63646        -0.043321      0.043149      0.007928
O	      2.17069      4.16115      4.65729        -0.033367      0.016500     -0.040255
O	      4.14180      6.20930      4.59743         0.049782     -0.081525      0.025364
O	      4.14454      4.14397      6.56088         0.025777     -0.007950      0.158559
O	      6.21960      6.25308      6.58168        -0.002681     -0.030320      0.022091
O	      6.26457      4.03659      8.68066         0.022380     -0.061995      0.019314
O	      8.47408      6.17012      8.72221         0.025289     -0.006180     -0.033960
O	      2.13168      6.11381      6.57205         0.048766      0.088888     -0.098483
O	      4.26114      8.23388      6.66871         0.004980     -0.018552      0.031447
O	      4.08474      6.22751      8.68813         0.032362     -0.016528      0.217235
O	      6.26429      8.30531      8.59806        -0.014573      0.060575      0.118528
O	      6.33465      6.20654     10.99573        -0.042311      0.017538     -0.029303
O	      8.29554      8.17809     11.02304        -0.009607     -0.024307     -0.048854
