# total energy = -239.16004984 eV
 
CRYSTAL
PRIMVEC
0.001608 6.276270 6.383911 
6.277691 0.003506 6.382063 
4.213794 4.211908 -0.026464 
PRIMCOORD
36 1
Li	      4.28468      2.05759      2.26440         0.020310     -0.098722     -0.005982
Li	      4.16171      0.12755      4.14312         0.017161     -0.044837     -0.050199
Li	      6.14744      2.12823      4.15344         0.010601      0.001839     -0.093051
Li	      4.25814      4.02239      4.37800        -0.050436     -0.030005      0.068867
Li	      4.12257      2.21243      6.24691         0.006316     -0.048807     -0.018989
Li	      6.41365      8.30627      6.42929         0.036282     -0.031533     -0.025496
Li	      4.30227      6.19408      6.44989         0.028370     -0.006358      0.062860
Li	      4.11644      4.21311      8.40909         0.009941     -0.017630     -0.027668
Li	      6.25186      6.39763      8.43708         0.015608      0.042979     -0.026013
Mn	      6.22773      4.22993      6.33471         0.083753      0.210594     -0.067222
Mn	      6.24823      4.21987     10.63556         0.012152      0.249086      0.045534
V	     10.43016      6.33778      8.50085         0.476970      0.125617      0.073007
V	      2.11643      6.27271      4.27230        -0.012781     -0.357626     -0.437395
Cr	     10.44470      4.23044      6.33069        -0.142601     -0.135565     -0.263583
Cr	      2.09764      8.36363      6.36834         0.172853      0.245467      0.024455
Cr	      6.41621     10.35254      8.50907         0.276851     -0.253641      0.077611
Cr	      2.19271      2.07621      4.28729         0.164744      0.280767     -0.090190
Fe	      2.17238      4.22444      2.15258        -0.210393     -0.179753      0.163876
O	      2.02260      2.00196      2.11235        -0.046657     -0.138119      0.000362
O	      4.32553      4.30640      1.95894        -0.363338     -0.141522      0.019364
O	      4.11140      2.08141      4.23602        -0.084125      0.009747     -0.009117
O	      6.29701      4.28318      4.10067        -0.017748      0.025182     -0.078661
O	      6.33784      2.11852      6.43019        -0.050819     -0.065020      0.521375
O	      8.35858      4.10385      6.44808         0.005637     -0.137822     -0.450592
O	      2.19816      4.19563      4.23219        -0.056128     -0.086185      0.600659
O	      4.22609      6.45115      4.21801         0.136067     -0.153593     -0.542291
O	      4.37356      4.19348      6.38187         0.122093      0.018872     -0.025909
O	      6.31732      6.18188      6.25110        -0.028088     -0.080236     -0.061921
O	      6.30024      4.14364      8.62091         0.202699      0.330772      0.054873
O	      8.46990      6.32837      8.61527        -0.334935      0.128190      0.320021
O	      1.98051      6.33347      6.39121         0.006102      0.004031     -0.078288
O	      4.09544      8.50585      6.24158        -0.051286      0.024309     -0.068501
O	      4.00555      6.31277      8.46381        -0.160727     -0.007692      0.001639
O	      6.26863      8.53231      8.45789        -0.008296      0.204458     -0.003495
O	      6.34250      6.18106     10.70519        -0.154752     -0.067374      0.180502
O	      8.33137      8.24634     10.77262        -0.031401      0.180129      0.209556
