# total energy = -45.57508546 eV
 
CRYSTAL
PRIMVEC
2.081086 2.081540 -0.000201 
-2.082113 2.082121 3.917604 
2.081388 -2.082272 3.917202 
PRIMCOORD
8 1
Li	      1.03844      1.04286      0.97652        -0.000176     -0.005588      0.002707
Li	      1.03671      1.03950      4.89416         0.006894      0.001431      0.000355
Mn	      1.03811      3.12239      2.93640         0.004697     -0.005560     -0.017239
Ni	      3.12003      1.03985      2.93513        -0.002227      0.003315      0.003153
O	      0.97838      1.10050      2.93574        -0.164406      0.167510      0.000393
O	      1.09881      0.97988      6.85309         0.160519     -0.162433      0.000997
O	      3.11934      1.03954      4.94769        -0.001282      0.001989      0.176789
O	      1.03868      3.12266      4.84057        -0.004017     -0.000664     -0.167156
