# total energy = -236.29425302 eV
 
CRYSTAL
PRIMVEC
0.009634 6.222859 6.342967 
6.239399 0.029690 6.323367 
4.173009 4.149093 0.006155 
PRIMCOORD
36 1
Li	      4.22580      4.14695      0.08915         0.011397     -0.033447     -0.036127
Li	      6.20580     10.29578      8.47739        -0.025578     -0.002666      0.007916
Li	      4.23506      2.13079      2.16076        -0.033906     -0.027403      0.013396
Li	      6.13634      8.32367     10.42333        -0.067747     -0.020064     -0.024313
Li	      4.17365      6.13118      2.13311         0.007929      0.036537     -0.009311
Li	      4.20854      4.09892      4.08209        -0.021116     -0.039837     -0.086249
Li	      4.17769      2.10159      6.27905         0.022998     -0.028682     -0.071635
Li	      4.15632      6.23211      6.44633         0.031303      0.038576      0.085458
Li	      6.21591      6.33019      8.48244        -0.019058     -0.027644      0.047650
Mn	      4.19880      6.26575     10.49111         0.026174      0.074186      0.005604
Mn	      8.42559      4.25111      8.37178         0.059951      0.067216      0.038988
V	      0.03303      4.16435      4.22042        -0.017101      0.045511     -0.044862
V	      6.14146      4.14241      6.33936         0.034451      0.088290     -0.022955
Cr	      2.11253      2.03466      0.07371         0.046581      0.009922      0.004643
Cr	      2.07197      2.05833      4.18291         0.021421     -0.059746     -0.009821
Cr	      2.12364      6.21096      4.23747         0.022971     -0.010598     -0.087465
Cr	      6.28329      8.29349      6.44060        -0.110640     -0.064352      0.054722
Ni	      8.28523      8.31213      8.46263         0.087781     -0.052593      0.152624
O	      2.08722      2.22038      2.08720         0.005487     -0.015539     -0.007622
O	      4.04973      4.18007      2.06262         0.003001      0.003361     -0.008001
O	      4.04984      1.98396      4.21143        -0.014712      0.007088      0.007313
O	      6.14794      4.24029      4.34434        -0.005555      0.016491      0.014169
O	      6.33245      2.31513      6.31798         0.035968     -0.065232      0.027361
O	      8.24263      4.09669      6.19444        -0.068766     -0.022278     -0.013488
O	      2.11297      4.14823      4.34873         0.059317      0.027171      0.047677
O	      4.18874      6.34136      4.18861        -0.051267     -0.098706     -0.039045
O	      4.19275      4.13927      6.43180        -0.088178      0.018158     -0.177315
O	      6.24393      6.17057      6.22615         0.021473      0.041562      0.015472
O	      6.33454      4.23683      8.39574         0.140720     -0.002691     -0.085081
O	      8.36243      6.20987      8.55947         0.011724     -0.076222      0.027467
O	      2.10938      6.21691      6.26365         0.034326     -0.019187      0.046924
O	      4.19505      8.27556      6.22140         0.012093      0.029999      0.071358
O	      4.15685      6.17527      8.62240        -0.029665      0.100559     -0.017527
O	      6.26984      8.30338      8.36615        -0.101239     -0.028946     -0.075751
O	      6.35396      6.18083     10.57318         0.037429      0.106488      0.032405
O	      8.36355      8.28575     10.65223        -0.079968     -0.015279      0.115420
