# total energy = -243.63291692 eV
 
CRYSTAL
PRIMVEC
-0.006942 6.382559 6.253931 
6.227647 -0.000240 6.246956 
4.163161 4.261874 -0.011389 
PRIMCOORD
36 1
Li	      6.20834      6.40202     12.45991         0.019174      0.019644      0.008323
Li	      8.29281      8.52291     12.46702         0.005383     -0.051631      0.002582
Li	      4.16267      2.19519      2.05253         0.042493      0.022273     -0.061476
Li	      6.22159      2.17994      4.25716         0.002890      0.035570      0.030430
Li	      2.12105      2.11629      4.17177         0.026229     -0.012120     -0.018450
Li	      4.16018      4.20989      4.18985        -0.010472     -0.041047      0.011598
Li	      6.23639      4.20970      6.10526        -0.079001     -0.037189     -0.039571
Li	      2.02135      6.34137      4.29032        -0.025123     -0.013936      0.089565
Li	      2.05484      4.28642      6.16646         0.049251      0.035054     -0.007734
Mn	      4.15871      2.12377      6.18237        -0.054163     -0.002841     -0.100474
Mn	      6.21518      6.50947      8.37184        -0.017557      0.113268      0.003407
V	      4.16329      6.42250      6.13655         0.006810     -0.013377      0.088330
V	      4.11618      4.27132      8.31300        -0.077352     -0.039035     -0.003399
Cr	      6.21488      4.26339      2.11192         0.049567     -0.046044     -0.064227
Cr	      8.28625      4.25208      4.24419        -0.031945      0.029453     -0.090929
Cr	      4.17025      6.35325      2.05558        -0.014191      0.013024      0.015634
Cr	      2.12046      4.16297      2.05886        -0.003422      0.018303      0.022422
Cr	      0.04205      4.27275      4.20424        -0.016120     -0.003623      0.101353
O	      1.99600      2.13699      2.06547        -0.009473     -0.006315      0.013431
O	      4.15397      4.33922      2.07836        -0.025962     -0.007401     -0.018161
O	      4.16494      2.00418      4.31010        -0.010109      0.031239      0.013857
O	      6.30288      4.25812      4.06972        -0.006603      0.014947      0.064013
O	      6.11875      2.13128      6.34498         0.034670     -0.047494     -0.023018
O	      8.26956      4.22473      6.25069         0.004764     -0.022595      0.066155
O	      2.02657      4.28200      4.01780         0.002100     -0.012020      0.010231
O	      4.13462      6.49108      4.20073         0.010765     -0.019809     -0.142375
O	      4.17378      4.35510      6.33029         0.011230      0.010456      0.004190
O	      6.11483      6.38804      6.28175         0.071988     -0.022735     -0.059153
O	      6.24580      4.15209      8.39851         0.082864     -0.058235     -0.010509
O	      8.34702      6.33747      8.18822         0.109234     -0.055727     -0.020308
O	      2.29503      6.37668      6.33125        -0.033060      0.041378      0.006392
O	      4.20268      8.36654      6.16581        -0.024864      0.047505     -0.066065
O	      4.07488      6.37920      8.35877        -0.060921     -0.004778      0.042436
O	      6.31345      8.63283      8.34678        -0.046153      0.049980     -0.003142
O	      6.16190      6.27932     10.43904         0.006670     -0.003273      0.086596
O	      8.38099      8.59024     10.31005         0.010410      0.039129      0.048047
