# total energy = -243.61258459 eV
 
CRYSTAL
PRIMVEC
0.003068 6.396784 6.206177 
6.302309 0.007095 6.202157 
4.218040 4.278219 -0.011393 
PRIMCOORD
36 1
Li	      6.28370      6.35095     12.26596         0.022079     -0.019632      0.024267
Li	      4.34395      6.44889     10.39294         0.046492      0.032357     -0.010237
Li	      6.28588      2.04595      4.20835         0.007727      0.019223      0.003829
Li	      8.42235      4.25728      8.21798         0.010551     -0.006688     -0.020721
Li	      6.29690      6.43863      4.23787        -0.022343     -0.013164     -0.006655
Li	      8.39903      6.33920      6.10348         0.014847     -0.026517     -0.007962
Li	      4.22275      8.60227      4.23415         0.002827      0.012719     -0.031819
Li	      6.20013      8.49073      6.16269        -0.078213     -0.044622      0.008030
Li	      4.26840      6.47236      6.12495        -0.021581      0.003554     -0.002429
Mn	      2.12151      6.38385      8.25938        -0.045674      0.070563      0.024367
Mn	      0.01276      2.13995      2.07222         0.036843     -0.009562     -0.015458
Mn	      6.36068      4.31488      6.12679        -0.001128     -0.053241     -0.007187
V	      4.21804      8.53740      8.25068        -0.037993      0.006578     -0.050785
V	      4.11865      4.22555      4.18632         0.097140     -0.040168      0.064235
Cr	      8.44625      8.60710     12.34108        -0.034521     -0.062759      0.019674
Cr	      2.08253      6.40544      4.19880         0.067181     -0.021947      0.015583
Cr	      8.40184      8.55716      8.26889         0.013034     -0.073980      0.013406
Cr	      6.31274      6.37964      8.28035         0.086348     -0.057966     -0.041745
O	      2.20405      2.14256      1.97902        -0.063258      0.055477     -0.025875
O	      4.23530      4.20762      2.17929        -0.032853     -0.047405      0.008526
O	      4.19255      2.28120      4.04876         0.037019      0.019137      0.070889
O	      6.13675      4.31853      4.10368         0.087691     -0.008464      0.039915
O	      6.41672      2.33637      6.18582        -0.026544      0.056051     -0.047308
O	      8.30453      4.22871      6.14602         0.005579      0.041821     -0.013468
O	      2.27092      4.34661      4.19965        -0.177038      0.074575     -0.001240
O	      4.12550      6.26341      4.14473        -0.028808     -0.051734      0.060336
O	      4.35383      4.23234      6.20768         0.010609      0.011614     -0.010557
O	      6.34769      6.24440      6.26462        -0.043153      0.024703      0.016621
O	      6.20306      4.34587      8.25666        -0.000005      0.105081     -0.035335
O	      8.34310      6.52306      8.34289        -0.079423      0.009336      0.011277
O	      2.06991      6.56214      6.20000        -0.004662     -0.032943     -0.034779
O	      4.15888      8.55903      6.25597         0.011294      0.031840      0.049109
O	      4.24566      6.34345      8.32861         0.063997      0.028759     -0.031381
O	      6.31394      8.46103      8.20115         0.119858     -0.069464      0.024760
O	      6.39574      6.39035     10.27522        -0.052862      0.011445     -0.032016
O	      8.42046      8.42649     10.29895         0.008943      0.025425     -0.027869
