# total energy = -234.19739239 eV
 
CRYSTAL
PRIMVEC
0.025522 6.211326 6.346915 
6.178645 0.028016 6.345886 
4.132896 4.154308 0.004406 
PRIMCOORD
36 1
Li	      6.18171      6.30229     12.48630        -0.014856      0.004566      0.018578
Li	      4.15338      2.04710      2.31878         0.039699      0.046006      0.016035
Li	      4.11952      0.08031      4.17551        -0.053654     -0.061155      0.025209
Li	      6.14888      2.04626      4.31551         0.087441      0.031790     -0.054742
Li	      4.12336      6.19467      2.13430         0.047187     -0.016956     -0.002392
Li	      6.20509      6.17625      4.31137        -0.009492     -0.067428     -0.020025
Li	      6.24529      4.05912      6.22934         0.016655     -0.016626     -0.029526
Li	      8.25641      6.28055     10.55001         0.016548      0.086714      0.000076
Li	      4.17611      6.25183      6.30084         0.010795      0.033155      0.030304
V	      2.10082      4.05573      2.07476         0.149967     -0.096564     -0.158694
V	      6.12091      8.36961      6.32684        -0.219452      0.055709      0.414716
Cr	      2.05248      0.07594      2.14825        -0.018777      0.075334      0.002041
Cr	      4.17251      4.21580      4.27113         0.344235      0.014361     -0.198876
Cr	      4.20062      2.06916      6.31561         0.105122     -0.075429     -0.014610
Cr	      4.14585      8.24512      4.22174        -0.637100     -0.352321     -0.011728
Cr	      4.16387      4.16737      8.46977        -0.012182     -0.046842      0.286871
Co	      8.19648      8.32065     12.58865        -0.004532      0.037781     -0.022075
Cu	      6.13869      6.27024      8.55191        -0.073056      0.034505     -0.191450
O	      2.10974      2.19429      2.07591         0.002633      0.046537     -0.015714
O	      4.08658      4.15458      2.26615        -0.138762      0.036041      0.149962
O	      4.12409      2.19830      4.36031        -0.047274      0.006451      0.009166
O	      6.13527      4.20972      4.11363        -0.101997      0.039795      0.134069
O	      6.19193      2.06970      6.32217        -0.093597     -0.024007      0.022299
O	      8.24829      4.22364      6.48795        -0.031113     -0.120548      0.003672
O	      2.07515      4.15897      4.27444         0.064165      0.017515     -0.045914
O	      4.15857      6.21622      4.28664        -0.007041     -0.041996      0.029518
O	      4.09868      4.11266      6.38157        -0.051440      0.014406     -0.070052
O	      6.27147      6.47308      6.49995        -0.002778     -0.062798      0.033759
O	      6.23334      4.05866      8.53438         0.088131     -0.072464      0.052799
O	      8.24848      6.12390      8.39273         0.072073      0.064784      0.014469
O	      2.06301      6.09003      6.43825         0.011900      0.031042     -0.088132
O	      4.17391      8.30524      6.23764         0.252289      0.038015     -0.159185
O	      4.07541      6.14511      8.44209        -0.044355      0.086216      0.017080
O	      6.27354      8.45934      8.36619         0.050494      0.069151     -0.135170
O	      6.17904      6.11036     10.45896         0.055101      0.203324      0.051154
O	      8.32672      8.26544     10.47101         0.147022     -0.018064     -0.093494
