# total energy = -231.94789106 eV
 
CRYSTAL
PRIMVEC
-0.032278 6.297989 6.118884 
6.333066 -0.028728 6.115843 
4.203669 4.177979 -0.000769 
PRIMCOORD
36 1
Li	      6.37902     10.34106      8.19475         0.006503      0.010844     -0.028542
Li	      4.30535      8.28380      8.17651        -0.008975     -0.013503      0.014749
Li	      6.40994      8.34134      9.97249         0.033046     -0.031251      0.141439
Li	      0.06547      2.24469      2.10902        -0.025273      0.017357     -0.014620
Li	      1.94114      4.11813      2.14335        -0.038067      0.068981     -0.033922
Li	      6.22132      4.18853     10.01993        -0.096442      0.040171      0.033452
Li	      8.39070      6.34555     10.11040        -0.024419      0.065336      0.015779
Li	      8.34302      8.42487      8.30562         0.042106     -0.001902     -0.001504
Li	      6.21812      6.32815      8.24826         0.000899     -0.073774     -0.022559
V	      4.25465     10.42841      6.16759         0.007497     -0.094743      0.046713
V	      8.46139      6.25971      6.25069         0.101163     -0.243619     -0.239686
Cr	      2.10644      2.08756      0.03954         0.206796     -0.110483     -0.240570
Cr	      2.08648      2.09943      3.97779         0.009049     -0.108184     -0.008227
Cr	      4.19679      4.17958      3.95431         0.034820     -0.132072     -0.190331
Cr	      6.31978      4.16158      6.19309        -0.000070      0.041566     -0.006783
Cr	      4.17437      6.30322      6.17584         0.053112     -0.102714      0.153516
Co	      4.18947      6.21451     10.04324         0.180953     -0.000874      0.038207
Ni	      6.28830      8.36572      6.18668         0.056694      0.047708      0.522867
O	      2.08473      2.11817      2.02453        -0.023372     -0.005226      0.083461
O	      4.17870      4.18873      1.89565         0.052591     -0.039940      0.289993
O	      4.12291      2.11869      4.20697        -0.056562      0.222549      0.002175
O	      6.22283      4.25265      4.11247         0.051716     -0.046206     -0.005635
O	      6.27350      2.05854      6.13411         0.058976      0.133965      0.030284
O	      8.42891      4.20499      6.09609        -0.128952      0.048874      0.112367
O	      2.20746      4.10767      4.13990         0.032851      0.039185      0.050070
O	      4.26427      6.17658      4.12922        -0.001931     -0.000480      0.056988
O	      4.27878      4.16406      6.01325         0.329349     -0.017215     -0.101990
O	      6.29624      6.19939      6.04457         0.082241     -0.676027     -0.083219
O	      6.30459      4.18620      8.08103        -0.014794      0.028307     -0.007507
O	      8.37705      6.27921      7.95612        -0.040987      0.027670      0.299874
O	      2.09241      6.35190      6.11229        -0.112360      0.847064     -0.010093
O	      4.11883      8.34953      6.12783        -0.598176      0.216202      0.004794
O	      4.19675      6.27370      8.09694        -0.013627      0.056427     -0.323007
O	      6.30340      8.34199      8.09529        -0.080959     -0.011597     -0.410169
O	      6.29442      6.27109     10.48260        -0.030850      0.020314     -0.251582
O	      8.38695      8.40507     10.31486        -0.044547     -0.222712      0.083215
