# total energy = -237.08212651 eV
 
CRYSTAL
PRIMVEC
0.002868 6.217598 6.162475 
6.349429 -0.025325 6.190330 
4.219505 4.150561 -0.003195 
PRIMCOORD
36 1
Li	      6.37761      6.23701     12.26847        -0.021398     -0.021061     -0.032981
Li	      4.31637      6.26480     10.23418         0.037350      0.084411      0.048249
Li	      6.34878      8.16786     10.24776        -0.050426      0.009214      0.006391
Li	     10.45440      6.23511      8.20018        -0.011325      0.018898      0.021410
Li	      4.25001      2.05495      6.19510         0.032370     -0.037639      0.013214
Li	      6.38939      8.22116      6.25379        -0.001511      0.022831      0.004299
Li	      4.21746      6.19273      6.25360         0.010041     -0.030665     -0.006187
Li	      8.34184      8.24703      8.22713        -0.025525     -0.021868     -0.040983
Li	      6.39461      6.26001      8.26798         0.023735      0.016067      0.009518
V	      4.21499      4.15603      4.17797        -0.014914      0.034966      0.095419
V	      6.30942      4.14388      6.22699         0.002007      0.101372     -0.003712
Cr	      8.44566      8.26997     12.30592        -0.045281      0.124160      0.004101
Cr	      2.15608      6.15993      8.19849        -0.049954      0.115336     -0.128122
Cr	      4.28429      8.24301      8.19088        -0.011699     -0.039235     -0.065484
Cr	      8.48185      4.20026      8.21754        -0.068218     -0.089059     -0.164809
Cr	     10.55629      8.28790     10.30270        -0.013625     -0.017779     -0.107203
Co	      6.32998      6.19687      4.16057        -0.070591      0.063037     -0.018926
Co	      8.44385      6.19744     10.30943        -0.227099      0.096162      0.030450
O	      2.19828      2.08417      2.01331         0.012707      0.042145     -0.018394
O	      4.21400      4.10399      2.11719         0.004404      0.000329     -0.103482
O	      4.16463      2.16077      4.03317        -0.094620     -0.158159     -0.003004
O	      6.26686      4.13279      4.10544         0.049043      0.083963      0.141476
O	      6.43202      2.24468      6.15750         0.035833     -0.068363      0.032648
O	      8.38975      4.09493      6.23253        -0.035881     -0.056946      0.037750
O	      2.05948      4.22744      4.07286         0.070604     -0.268537      0.138032
O	      4.14395      6.20488      4.11274         0.796383      0.093342      0.105392
O	      4.34631      4.08459      6.13596         0.013247      0.032877      0.042070
O	      6.37001      6.00970      6.16497         0.006209     -0.000846      0.002059
O	      6.47646      4.12300      8.23336         0.087141     -0.033189     -0.011590
O	      8.47800      6.13650      8.38115         0.189631     -0.013161     -0.834902
O	      2.06825      6.31067      6.16814         0.096785     -0.140539      0.555379
O	      4.11333      8.28630      6.12888         0.022258      0.000614      0.055069
O	      4.11298      6.27301      8.24633        -0.014569      0.008873     -0.008919
O	      6.25279      8.35943      8.19715         0.008644     -0.050775     -0.037508
O	      6.49658      6.10923     10.29179        -0.776061     -0.057502      0.166583
O	      8.56252      8.14109     10.31865         0.034307      0.156728      0.076699
