# total energy = -231.94307828 eV
 
CRYSTAL
PRIMVEC
-0.013033 6.411258 6.278608 
6.179595 -0.001631 6.267788 
4.114405 4.261732 0.003860 
PRIMCOORD
36 1
Li	      4.18074      6.37423     10.49639         0.024103     -0.038225     -0.006176
Li	      6.18379      2.06246      4.27431        -0.052149     -0.013660      0.033678
Li	      6.08274      2.33606      8.29513         0.021766      0.033768     -0.051754
Li	      6.15944      6.40934      4.30472        -0.014290     -0.032360     -0.040722
Li	      8.12560      6.38033      6.35470         0.020107      0.012330      0.023122
Li	      6.20604      4.37203      6.37167         0.017698      0.066832     -0.038412
Li	      6.15025      4.34317     10.30948         0.050688      0.036724     -0.000036
Li	      6.18731      8.34875      6.25737         0.017073     -0.000043      0.027235
Li	      6.26445      6.26447      8.28796        -0.007897      0.034702     -0.012023
V	      4.18370      8.49509      8.44955         0.071039     -0.013573      0.108978
V	      4.11921      4.25500      4.27963         0.031949      0.017495      0.032238
Cr	      6.14081      0.01650      6.22354        -0.102424      0.026392     -0.053316
Cr	      8.19415      2.15652      6.22659        -0.115816      0.085258     -0.006173
Cr	      6.17058      4.25782      2.09802         0.017174     -0.031837      0.122050
Cr	      8.20957      6.43671     10.39533        -0.033151     -0.009255     -0.154647
Cr	      4.20780      6.41680      6.25801         0.193469     -0.073923     -0.038534
Cu	      8.10888      4.36486      8.30197         0.034889      0.001055      0.025122
Ni	      4.19868      4.26278      8.39188        -0.145283      0.085030     -0.046302
O	      2.23003      1.98157      2.00089         0.013908     -0.075888      0.025266
O	      4.12948      4.11028      2.08560         0.182820     -0.063887     -0.003324
O	      4.06396      2.24956      4.08159        -0.000552     -0.007803     -0.082438
O	      5.97076      4.27449      4.05337         0.030286     -0.008211      0.011189
O	      6.23346      1.97169      6.30405         0.032423     -0.073820     -0.021037
O	      8.27356      4.14962      6.30150         0.082787     -0.103822     -0.082823
O	      2.21462      4.37961      4.06189         0.017240      0.041923      0.117150
O	      4.06854      6.29140      4.27515        -0.041869      0.007411      0.015512
O	      4.10902      4.39709      6.19816        -0.033519      0.036490     -0.061900
O	      6.11266      6.43141      6.26706        -0.150785     -0.027217     -0.008065
O	      6.19373      4.26301      8.36163        -0.109156      0.025138     -0.015495
O	      8.21830      6.55062      8.44980         0.076016     -0.043045      0.054623
O	      2.04678      6.49384      6.29450         0.008345      0.004023     -0.032325
O	      4.07123      8.52081      6.37082        -0.014160     -0.002050      0.031663
O	      4.05788      6.44986      8.33863        -0.031377      0.056172     -0.038690
O	      6.03836      8.63935      8.34324        -0.106767      0.045694     -0.011098
O	      6.22912      6.37501     10.56705         0.013147      0.032045      0.039182
O	      8.21676      8.45529     10.49625         0.002269     -0.029865      0.138281
