# total energy = -230.64634943 eV
 
CRYSTAL
PRIMVEC
-0.008725 6.201053 6.338970 
6.247525 -0.013198 6.343414 
4.160341 4.132413 -0.003906 
PRIMCOORD
36 1
Li	      2.14076      8.17951      6.32770        -0.002369      0.027914      0.071930
Li	      4.29880      8.11585      8.39875        -0.017041      0.046920     -0.044102
Li	      6.22226      6.22540      4.40090        -0.028633      0.023891     -0.113503
Li	      8.16788      6.28131      6.30077         0.019037     -0.016639      0.064323
Li	      2.11438      6.19675      4.36615         0.060673     -0.016624      0.008066
Li	      6.24135      8.16799      6.47094         0.016470      0.020972     -0.018950
Li	      4.23097      6.20728      6.46999        -0.025178      0.000760     -0.010922
Li	      4.08713      4.22048      8.37023         0.090029     -0.100528     -0.003373
Li	      6.14688      6.28087      8.22242         0.070885     -0.148268     -0.040493
V	      8.27912      4.13577      8.40973        -0.219734     -0.024391      0.093499
V	      6.21018      2.09417      8.39704        -0.095284      0.214106      0.280623
Cr	      4.20096     10.28506      6.38782         0.148063     -0.005834     -0.053788
Cr	      4.14084      0.03280      4.20787        -0.031318     -0.031858      0.127971
Cr	      6.28495      8.22181     10.50089         0.082904     -0.003916      0.222413
Cr	      4.13154      4.11605      4.26748        -0.070285      0.169013      0.073659
Cr	      4.15301      8.23353      4.30253        -0.036685     -0.186297     -0.100503
Cu	      2.21275      6.06797      8.34169         0.107225      0.091328     -0.049569
Cu	      6.15095      4.24890      6.32785         0.087209     -0.121318     -0.028238
O	      6.21681      6.14607      6.30991        -0.004422      0.111134     -0.017007
O	      1.90416      2.24632      2.06843         0.007438     -0.108782      0.050931
O	      4.04143      4.19365      2.11083         0.092272     -0.156232     -0.059630
O	      4.28546      2.09271      4.22046         0.070762     -0.130375     -0.075285
O	      6.23019      4.04449      4.02783         0.084114     -0.079620      0.072110
O	      6.25659      2.05034      6.42161        -0.030993     -0.148289     -0.446326
O	      8.32999      4.13866      6.39789         0.120430      0.028536     -0.177492
O	      2.07753      4.14254      4.05886         0.028030     -0.026266      0.031274
O	      4.13092      6.19197      4.03204         0.055587      0.008405      0.185098
O	      4.20156      4.16542      6.17849        -0.058223     -0.015975     -0.047740
O	      6.28668      4.06634      8.59746        -0.057780      0.212972      0.204657
O	      8.45831      6.05448      8.42105        -0.042729      0.070100     -0.045082
O	      1.99022      6.17950      6.43949        -0.103908     -0.014335     -0.193343
O	      4.16179      8.32598      6.25505         0.053025     -0.029072      0.088718
O	      4.20092      6.21531      8.60729        -0.106410     -0.000439      0.055625
O	      6.28729      8.16095      8.57977        -0.051316      0.127529     -0.006198
O	      6.17407      6.17266     10.74206        -0.117587      0.085694     -0.086688
O	      8.35110      8.34747     10.60593        -0.094257      0.125782     -0.012664
