# total energy = -236.11756590 eV
 
CRYSTAL
PRIMVEC
-0.003722 6.294550 6.107180 
6.401300 -0.009742 6.112447 
4.261247 4.193329 0.000505 
PRIMCOORD
36 1
Li	      2.35285      6.17038      8.18608         0.019550     -0.023193      0.024166
Li	      4.39295      8.19186      8.18587         0.033587     -0.049589      0.058969
Li	      4.42651      6.25664     10.01427         0.079974     -0.016067      0.026143
Li	     10.48153      6.47610      8.24417        -0.049599      0.007671      0.047899
Li	      8.31014      4.34117      8.20825        -0.001399      0.033712      0.024908
Li	      6.35957      4.31511     10.03243        -0.025054      0.067045     -0.000481
Li	      8.40996      6.30811     10.01674        -0.060243      0.040310      0.023960
Li	      8.57792      8.38900      8.28083         0.009395      0.004835      0.019568
Li	      6.38513      6.24782      8.32177        -0.013023      0.036305      0.001721
V	      2.19208      8.39076      6.15290        -0.049267      0.145405      0.075824
V	      4.24401      4.18587      3.82582        -0.025331      0.016878     -0.215000
Cr	      2.13107      2.07920      3.93704        -0.032080     -0.012392     -0.149002
Cr	      8.53784      6.24593      6.20166         0.028453     -0.008426     -0.051050
Cr	      6.39617      4.17047      6.21446        -0.052254      0.173838     -0.067414
Cr	      6.38847      8.41586      6.18909        -0.023429     -0.011442      0.090101
Cr	      4.26035      6.29259      6.18847         0.126608     -0.213272     -0.046710
Fe	      0.01025      6.28991      6.11517        -0.028534     -0.001221     -0.036025
Co	      6.45098      8.34856     10.08759         0.046266     -0.082942     -0.160444
O	      2.12917      2.08340      1.90639         0.007834     -0.018257      0.042588
O	      4.24236      4.18651      2.07724        -0.032100      0.029309      0.259567
O	      4.15284      2.18750      4.10762        -0.119105      0.071210      0.056366
O	      6.23811      4.19982      4.10681        -0.029798      0.158164      0.072694
O	      6.36077      2.17367      6.07323         0.035572      0.145640     -0.031448
O	      8.40770      4.19212      6.13264        -0.118526     -0.042832      0.014605
O	      2.24930      4.10285      4.12729        -0.009858     -0.077103      0.056323
O	      4.38437      6.15979      4.10589         0.049753     -0.090993      0.066197
O	      4.22787      4.16791      6.00936        -0.012152     -0.009416     -0.002664
O	      6.41101      6.29705      6.00048        -0.000641      0.015552     -0.016316
O	      6.36899      4.20450      8.09943        -0.007148     -0.017258     -0.030433
O	      8.52750      6.30184      8.07577        -0.008730      0.000226     -0.075460
O	      2.25032      6.27785      6.12403         0.154643     -0.005356      0.019633
O	      4.27941      8.31007      6.10398        -0.031541     -0.266892      0.050084
O	      4.28437      6.25716      8.07995         0.002457     -0.037358     -0.021024
O	      6.35428      8.40088      8.11813         0.030422      0.018445     -0.094914
O	      6.40940      6.37009     10.28452        -0.010754      0.005033     -0.088247
O	      8.53280      8.39535     10.46073         0.116051      0.014431      0.055316
