# total energy = -235.43186333 eV
 
CRYSTAL
PRIMVEC
0.004420 6.330892 6.241388 
6.259441 -0.018686 6.264366 
4.164534 4.227408 -0.003880 
PRIMCOORD
36 1
Li	      6.22771      0.03330      6.18804         0.019651      0.034931      0.012491
Li	      8.34820     10.50250     10.46085        -0.000022      0.024218     -0.039886
Li	     10.37258      6.38730      8.38235         0.012398      0.076557      0.021324
Li	      2.09645      2.10857      4.13646        -0.005022      0.008880     -0.046207
Li	      4.15058      4.20946      4.13544        -0.007584     -0.021941     -0.003372
Li	      6.26781      4.18371      6.24711        -0.030234      0.038243      0.012183
Li	      6.27375      4.27476     10.35253         0.011940      0.054379      0.048707
Li	      8.28294      6.30066     10.35857         0.021637     -0.013879      0.049285
Li	      8.47880      8.37239      8.41527         0.053012      0.037620      0.025254
V	      4.12395      2.12978      2.16473        -0.226622      0.014543     -0.018947
V	      4.17900      6.24253      6.08661         0.023577     -0.044812      0.191292
Cr	      6.23001      4.20702      2.13176        -0.040152      0.081512     -0.102349
Cr	      6.28696      8.43147     10.42151         0.120156     -0.016036      0.092743
Cr	      4.19602      2.08061      6.24979         0.033299     -0.045480      0.021416
Cr	      2.07662      4.22077      6.15829        -0.052784      0.006546     -0.085318
Cr	      6.29341      6.27168      8.39045         0.033982     -0.049223     -0.076009
Fe	      8.29548      2.26779      6.22992        -0.029325     -0.106256      0.201381
Cu	      2.04383      4.25875      2.21780         0.038154      0.030626     -0.043628
O	      2.07436      1.95652      1.98537        -0.166093     -0.238992     -0.003233
O	      4.20779      4.07251      2.06390         0.049768     -0.012613     -0.018600
O	      4.23788      2.05307      4.16566         0.110813     -0.000639      0.155377
O	      6.26870      4.11334      4.06399         0.002575      0.012361      0.124719
O	      6.22489      2.10983      6.18108        -0.034083      0.012186      0.054755
O	      8.34754      4.23974      6.36826         0.015536      0.142909     -0.019967
O	      2.09732      4.20578      4.22250        -0.001777     -0.019325      0.015637
O	      4.19121      6.33217      4.36522         0.004873      0.010686     -0.300241
O	      4.08347      4.23825      6.23724        -0.032347     -0.039492     -0.029172
O	      6.24662      6.40694      6.29658         0.073077     -0.008008      0.010707
O	      6.31888      4.33376      8.37271        -0.015972     -0.012412     -0.046698
O	      8.28150      6.42837      8.20683         0.018636      0.165650      0.008289
O	      2.19713      6.24602      6.31359        -0.045653     -0.022732     -0.013150
O	      4.17092      8.31730      6.32969         0.006901     -0.009368     -0.098921
O	      4.18597      6.38551      8.19404         0.013113     -0.024959      0.015103
O	      6.22476      8.44586      8.31789         0.008997     -0.091246     -0.008829
O	      6.26956      6.42393     10.32542        -0.007874      0.022419      0.137828
O	      8.29071      8.43917     10.58552         0.023451      0.003148     -0.243963
