# total energy = -136.53406981 eV
 
CRYSTAL
PRIMVEC
2.076261 2.100635 3.948627 
-4.141058 -0.006681 3.946071 
2.062704 -6.288277 3.948438 
PRIMCOORD
24 1
Li	     -1.04499     -1.06752      4.93794        -0.011579     -0.001150      0.000325
Li	      1.01909     -3.11778      4.93390         0.013157      0.002934      0.009832
Li	      1.03024     -3.12826      8.88167         0.013095      0.000487     -0.003093
Li	     -1.00991     -5.25177      8.88144        -0.007691     -0.006721      0.001600
Li	      1.03057      1.02389      4.93355         0.006600     -0.005127     -0.009511
Li	     -1.02233     -1.04004      8.87899        -0.014420      0.011551      0.001612
Mn	      3.12749     -3.10013      6.91231         0.006474     -0.015747     -0.020916
Mn	      1.01647     -5.24904      6.91903         0.046173      0.011379      0.020584
Mn	      1.04631     -1.07101      2.96180        -0.013962      0.015735     -0.019856
Ni	     -1.02621      1.02949      6.91437        -0.029012      0.011391     -0.016042
Ni	      1.00735     -1.04025      6.88882        -0.002090     -0.013879     -0.018969
Ni	     -1.01949     -3.12505      6.91336         0.017333     -0.010141      0.028378
O	     -1.12266     -1.02421      6.91105        -0.107767     -0.013031     -0.000371
O	      1.08360     -3.25805      6.90785         0.087454     -0.090997      0.001588
O	     -0.98054     -5.27143      6.91178         0.042124      0.022648     -0.004885
O	      0.95767      0.96511      2.96013        -0.107660     -0.041887     -0.001670
O	     -0.98433     -0.95768      2.94709         0.094419      0.096383     -0.003397
O	      1.03180     -3.05495      2.96733        -0.008447      0.050338      0.005715
O	     -1.03503      1.04400      4.84745        -0.005595     -0.004211     -0.139024
O	      1.01813     -1.05742      4.88350        -0.000683     -0.002313     -0.130322
O	     -1.04554     -3.14988      4.90142        -0.001943      0.000933      0.035587
O	     -1.01010     -3.13247      8.98401         0.000389     -0.004596      0.090910
O	      1.05280     -5.22965      4.91615        -0.014502     -0.010603      0.032189
O	     -3.11385     -1.06270      5.00877        -0.001866     -0.003377      0.139738
