# total energy = -235.91138727 eV
 
CRYSTAL
PRIMVEC
0.035046 6.289614 6.297165 
6.238021 0.029491 6.302478 
4.180896 4.218602 -0.002418 
PRIMCOORD
36 1
Li	      4.15374      2.05417      2.17154        -0.023512     -0.030894     -0.050525
Li	      4.13073      0.16996      4.15419         0.008142      0.062095      0.016403
Li	      6.25970      2.19309      8.34720        -0.011747     -0.002950     -0.102009
Li	      6.34692      6.23877      4.30535         0.030022     -0.053845      0.005033
Li	      8.28552      6.31669      6.22207        -0.010215      0.031913      0.000298
Li	      6.27114      4.34502      6.32479        -0.034395     -0.021715     -0.007710
Li	      6.26138      4.23729     10.45130        -0.046105      0.013847      0.049603
Li	      4.29675      6.28496      6.33522        -0.006020     -0.011662      0.015335
Li	      6.20037      6.24865      8.33319        -0.016150     -0.053222      0.028935
V	      8.40610      6.33399     10.43160        -0.091626      0.217873      0.007055
V	      6.23018      8.27250      6.31109        -0.049845     -0.189060      0.109094
Cr	      6.22394      0.06307      6.31778        -0.170946     -0.146347     -0.044326
Cr	      8.38488      8.45202     12.57007         0.156584      0.125722      0.020261
Cr	      2.11360      0.05531      2.13368         0.019500      0.239322      0.012971
Cr	      8.26796      4.20685      8.39825        -0.042207     -0.003200     -0.308246
Cr	      4.25919      4.24966      8.36179         0.116344      0.000074     -0.219862
Fe	      4.22342      4.10503      4.25212         0.071186      0.147420      0.241220
Ni	      6.22335      2.13796      4.19415         0.020908     -0.030412      0.127777
O	      2.08740      2.12478      1.96967         0.004045     -0.085161      0.065780
O	      4.15286      4.24456      2.09194         0.030240      0.007617     -0.001779
O	      4.20029      2.19436      4.19306        -0.158663     -0.127026     -0.048190
O	      6.18247      4.23959      4.10942         0.097979      0.118992     -0.071304
O	      6.35644      2.05641      6.24394         0.027026      0.018155      0.088404
O	      8.40072      4.16384      6.38102         0.027897      0.021574      0.126539
O	      2.13124      4.25827      4.13948        -0.099113     -0.104553      0.471402
O	      3.96784      6.20318      4.27477         0.101999     -0.012664     -0.039597
O	      4.07554      4.20739      6.32613         0.690254     -0.143451      0.033370
O	      6.23665      6.39759      6.29088         0.073211      0.268919      0.039962
O	      6.27502      4.21024      8.41009         0.019637      0.049119     -0.014532
O	      8.32296      6.30661      8.52175         0.004697     -0.022901      0.058412
O	      2.05523      6.33848      6.32669        -0.031248     -0.118785     -0.009988
O	      4.20134      8.51374      6.27928        -0.607618      0.133528      0.000705
O	      4.11656      6.22188      8.43341        -0.058173     -0.034983      0.010761
O	      6.40147      8.54367      8.37756        -0.107279     -0.113512     -0.573779
O	      6.46010      6.34549     10.61640         0.010063     -0.093955     -0.027969
O	      8.38095      8.32503     10.46590         0.055129     -0.055872     -0.009503
