# total energy = -238.73501835 eV
 
CRYSTAL
PRIMVEC
0.017706 6.322298 6.202992 
6.282721 0.008595 6.212155 
4.195565 4.227964 -0.001404 
PRIMCOORD
36 1
Li	      2.13227      0.15254      2.09271         0.023682     -0.018983     -0.019208
Li	      4.05169      2.06689      2.11554         0.030546      0.061499      0.073090
Li	      4.17432      6.36145     10.17799        -0.024538      0.017261     -0.032363
Li	      0.11085      2.11181      2.10612         0.017319     -0.018567      0.031075
Li	      2.09440      4.12011      2.08875         0.022512     -0.008624      0.011966
Li	      2.13230      2.10914      3.95177        -0.054286     -0.003855      0.078803
Li	      6.28210      8.45573      6.24838         0.020810      0.012307      0.036412
Li	      4.26926      4.28084      8.28124        -0.051357     -0.038123     -0.004804
Li	      6.24226      6.26052      8.27136        -0.037492      0.006507     -0.080527
V	      6.29427      8.44622     10.17276        -0.084104      0.073343     -0.119099
V	      4.23616      6.33608      6.33041        -0.110508      0.058041     -0.064775
Cr	      2.12079      2.12555      0.08211        -0.172627     -0.142407     -0.008823
Cr	      4.17838      4.20975      4.06726        -0.013331      0.048864     -0.062691
Cr	      8.35528      6.32226      6.29280        -0.274717     -0.033287      0.138575
Cr	      6.30311      4.23105      6.28185         0.026996      0.178442     -0.075244
Cr	      6.31752      4.22768     10.25483         0.077594     -0.038743     -0.112005
Fe	      4.21478      4.20344      0.19116         0.153270      0.064437     -0.093532
Fe	      8.39085      6.31476     10.17391         0.133478     -0.004460      0.311757
O	      2.10289      2.11764      1.98796         0.015554      0.057011     -0.047232
O	      4.21927      4.20715      2.13444        -0.016516     -0.008387      0.195505
O	      4.29297      2.19666      4.23697         0.037121     -0.001298     -0.050043
O	      6.19577      4.10873      4.22826        -0.028089     -0.125974     -0.026041
O	      6.28126      2.17731      6.12494         0.021509      0.010171     -0.001860
O	      8.29498      4.26040      6.19108         0.053510     -0.008018      0.019956
O	      2.08126      4.31702      4.15989        -0.069408     -0.108811     -0.042669
O	      4.15728      6.34467      4.18479         0.018276      0.038671     -0.082038
O	      4.24043      4.16030      6.15615         0.133485      0.449540     -0.044866
O	      6.31791      6.24098      6.18836         0.712763     -0.264280      0.010692
O	      6.26603      4.21923      8.29229         0.029824     -0.029497      0.143907
O	      8.36906      6.37082      8.27206         0.013466     -0.000415     -0.239218
O	      2.21154      6.42672      6.13655        -0.671038      0.161238     -0.028932
O	      4.14969      8.40108      6.08035         0.021952     -0.405964      0.020257
O	      4.20823      6.32990      8.19453         0.026548      0.055761      0.222890
O	      6.30780      8.42944      8.45843         0.001824     -0.027163      0.025532
O	      6.35602      6.34785     10.42696        -0.042552     -0.092922     -0.030953
O	      8.38109      8.39486     10.39937         0.058525      0.086687     -0.053493
