# total energy = -232.85460133 eV
 
CRYSTAL
PRIMVEC
0.002644 6.308731 6.212955 
6.277309 0.016751 6.198927 
4.187141 4.198603 0.008954 
PRIMCOORD
36 1
Li	      8.31756      2.22681      6.21903        -0.038574      0.066926     -0.035647
Li	      8.27033      4.30735      4.14834         0.017709      0.040039     -0.023152
Li	      6.18034      2.22570      4.16002        -0.014152     -0.033743     -0.012380
Li	      8.33512      4.19925      8.21278        -0.001185      0.014040     -0.000128
Li	      6.36969      6.17590      4.16670        -0.012552     -0.026048      0.008027
Li	      4.30405      4.10717      4.13899        -0.011303      0.014005      0.021767
Li	      4.26217      6.29068      6.26386         0.052689     -0.019314     -0.036909
Li	      4.23199      4.30363      8.28773         0.005397      0.016552      0.023022
Li	      6.18548      6.26954      8.25435        -0.051347      0.013965      0.037958
V	      8.36663      6.39844     10.28174         0.031216      0.106626     -0.155933
V	      2.23372      4.13862      6.22506         0.117922     -0.199106      0.071007
Cr	      6.23105      0.04179      6.17306        -0.222086      0.021169     -0.010259
Cr	      6.31897      4.19881      2.14989         0.040079     -0.001475      0.146396
Cr	      4.14689      2.07269      2.14746        -0.050228     -0.023600      0.050214
Cr	      0.02358      2.11103      2.07810         0.058174     -0.001910     -0.095515
Cr	      6.28200      4.22000     10.31817        -0.069374     -0.052612     -0.080184
Ni	      4.17112      2.06833      6.11843        -0.004621      0.063543      0.107948
Ni	      6.33930      4.23425      6.14609        -0.089013      0.009529      0.072378
O	      2.08856      2.00860      2.06371         0.001166      0.011886     -0.023991
O	      4.25116      4.21233      2.00264         0.008530     -0.014126     -0.014076
O	      4.18160      2.13827      4.07374        -0.028920     -0.007123     -0.112190
O	      6.26924      4.18836      4.12898         0.005394      0.000818     -0.195856
O	      6.23489      2.08440      6.26989         0.154059     -0.111505      0.017839
O	      8.41566      4.23903      6.19764         0.184518     -0.116012     -0.018949
O	      2.01471      4.37545      4.24977         0.008168     -0.024207     -0.032025
O	      4.09463      6.38362      4.09934        -0.033674     -0.016167     -0.024576
O	      4.05949      4.18343      6.21707        -0.037387      0.097095      0.015528
O	      6.29736      6.38938      6.22294        -0.111226      0.123956     -0.001717
O	      6.29212      4.12286      8.30164        -0.008246     -0.004863      0.112675
O	      8.47681      6.29630      8.37106         0.032895     -0.037437      0.164926
O	      2.02324      6.18960      6.20429        -0.029564      0.041325      0.000949
O	      4.30766      8.49025      6.19624        -0.004385      0.019254      0.022219
O	      4.10083      6.40906      8.27954        -0.009931     -0.015996     -0.040444
O	      6.18076      8.47689      8.18743         0.014495      0.060963     -0.049042
O	      6.37352      6.23737     10.37274         0.053517      0.035558      0.046330
O	      8.44145      8.22776     10.39217         0.041841     -0.052006      0.043790
