# total energy = -240.67621560 eV
 
CRYSTAL
PRIMVEC
0.012339 6.280023 6.212553 
6.331716 0.012416 6.212671 
4.225130 4.190765 0.004347 
PRIMCOORD
36 1
Li	     10.47871      4.24628      6.31346        -0.074377     -0.005521      0.031610
Li	      2.12771      6.24423      8.24154         0.020876      0.019848     -0.039981
Li	      4.26114      6.26802     10.33561         0.013276      0.000811     -0.018501
Li	      6.34387      2.09148      8.21227        -0.049192     -0.010429      0.040779
Li	      8.44018      4.19673      8.20387         0.005058      0.024950      0.037527
Li	      8.46018      6.23653      6.31031        -0.008597     -0.038587      0.092245
Li	      6.40649      8.37111      6.32684         0.056450     -0.009148      0.028370
Li	      4.22892      4.27190      8.23411         0.009512     -0.004219      0.038283
Li	      6.29157      6.27671      8.26426         0.013366      0.002927      0.002223
V	      4.28514      8.39342      8.25283         0.024520      0.002304     -0.102956
V	      8.37901      6.26403     10.24882        -0.329124     -0.330576      0.327185
Cr	      8.42506      2.13425      6.24807         0.092420     -0.146141     -0.068945
Cr	      6.34339      8.37089     10.33433         0.071645      0.059886      0.032490
Cr	      2.12433      2.09708      4.11453        -0.072355      0.074870     -0.058656
Cr	      4.21200      4.19392      4.12567        -0.096986      0.136254      0.008326
Cr	      6.35701      4.19961      6.30783        -0.003099      0.012172     -0.002551
Cr	      4.24093      6.27608      6.26186        -0.102669      0.079362     -0.114350
Co	      6.31916      4.25112     10.23206         0.258000      0.223235     -0.032651
O	      2.21161      2.06880      2.08684        -0.015526      0.025139      0.012099
O	      4.23072      4.10847      2.14873         0.027147      0.029652      0.031050
O	      4.19965      2.17722      4.15088         0.041145     -0.031996      0.005240
O	      6.24213      4.20995      4.21883         0.023774     -0.027842      0.006262
O	      6.40424      2.16841      6.15944        -0.050469      0.005448      0.017931
O	      8.35359      4.11576      6.20567        -0.016810      0.017127     -0.021303
O	      2.16220      4.18083      4.17728         0.057576      0.042213      0.053512
O	      4.27524      6.23439      4.18024         0.059754      0.003402     -0.048729
O	      4.29843      4.27056      6.17069         0.027648     -0.055502      0.001341
O	      6.28073      6.23082      6.11979         0.008386     -0.032964      0.000324
O	      6.32552      4.20630      8.27544         0.014268      0.025349      0.071648
O	      8.50347      6.29326      8.51185         0.078310      0.020519     -0.561125
O	      2.23195      6.34016      6.05114        -0.014787      0.007334      0.207402
O	      4.14132      8.31740      6.15328        -0.045872     -0.016160     -0.017038
O	      4.22623      6.38430      8.21715         0.024045     -0.040332     -0.022871
O	      6.26659      8.37689      8.36971         0.060154      0.026926      0.073244
O	      6.46705      6.35966     10.39190        -0.064239     -0.072293      0.036397
O	      8.36967      8.30221     10.41922        -0.043229     -0.018020     -0.045831
