# total energy = -238.20011798 eV
 
CRYSTAL
PRIMVEC
-0.035460 6.500921 6.107974 
6.417076 -0.041932 6.114241 
4.243042 4.303937 0.006953 
PRIMCOORD
36 1
Li	     10.37271      4.24733      6.17345         0.006057      0.064501      0.010974
Li	      8.55799      2.42308      6.14659        -0.021795      0.005514     -0.016508
Li	      4.12245      2.17777      2.10965        -0.010998     -0.027073     -0.053766
Li	      8.42527      4.43344      4.22162        -0.009084     -0.015279     -0.074833
Li	      8.56420      4.22221      7.99658        -0.008632      0.022312      0.048948
Li	      2.36947      2.08009      4.05303         0.044456     -0.024674      0.009815
Li	      4.35172      4.10280      4.09407         0.024197      0.009127     -0.015401
Li	      8.48415      6.17181      5.99019         0.006173      0.009707      0.042088
Li	      6.63904      4.30436      6.00099         0.002076     -0.008785      0.009577
V	      0.10885      2.08876      1.88317         0.001562     -0.026277      0.151588
V	      4.27778      4.28657      8.11605         0.026772     -0.102275      0.055953
Cr	      6.29433      2.18243      4.12278         0.056455     -0.008301     -0.031057
Cr	     10.61252      8.63838     10.24614        -0.113441     -0.029918     -0.019707
Cr	      2.07239      6.48951      4.12335         0.061115      0.151310     -0.068208
Cr	      6.34657      8.61000      6.12828         0.015470     -0.015250      0.126586
Cr	      4.26849      6.45297      6.09761        -0.053470     -0.026910      0.031635
Cr	      6.41603      6.38808      8.11871        -0.002466      0.051624      0.000548
Cu	      6.32020      4.35940      2.06774         0.010663     -0.041462     -0.038464
O	      8.51747      4.28789      6.10538        -0.005738      0.005953      0.026337
O	      1.93207      2.21679      2.09025        -0.013288      0.115967     -0.016568
O	      4.24866      4.57111      2.06737        -0.079459      0.031568     -0.004498
O	      4.38290      2.14109      4.02629        -0.014043     -0.005236      0.028340
O	      6.40743      4.11734      3.96675        -0.018860     -0.047452      0.137979
O	      6.36835      2.18542      6.20132         0.014540      0.012874     -0.085634
O	      1.95193      4.48324      4.16807         0.015249      0.000132     -0.099430
O	      4.09113      6.65663      4.02996        -0.019334      0.033709      0.037071
O	      4.13190      4.43048      6.13522        -0.137617      0.100824     -0.067730
O	      6.28783      6.56539      6.12134        -0.019014     -0.009278     -0.040352
O	      6.34405      4.32640      8.22195        -0.122412      0.016580      0.027776
O	      8.50441      6.54929      8.21480        -0.006897     -0.095011      0.025733
O	      2.23251      6.34113      6.15897         0.018988     -0.045950     -0.075114
O	      4.30595      8.50498      6.12176         0.010713      0.001579      0.017636
O	      4.40249      6.30518      8.08553         0.129065      0.065308     -0.063483
O	      6.43657      8.39754      8.19096         0.137821     -0.117229     -0.073664
O	      6.48221      6.41741     10.15331         0.024556      0.007851      0.046069
O	      8.49984      8.48756     10.17656         0.050620     -0.060079      0.009764
