# total energy = -242.54476090 eV
 
CRYSTAL
PRIMVEC
0.031937 6.375678 6.291702 
6.383966 0.028128 6.295329 
4.268355 4.265370 0.006590 
PRIMCOORD
36 1
Li	      6.38875      0.27917      6.44483         0.038185     -0.047364      0.018200
Li	      8.27500      2.13326      6.43063         0.035724     -0.031957      0.058895
Li	      6.22647      4.38195      2.13428        -0.019684     -0.005512     -0.003522
Li	      6.35537      2.21626      4.42088        -0.003876      0.022981      0.001795
Li	      6.44426      2.02915      8.17526        -0.009429     -0.025946      0.097892
Li	      2.28039      4.20765      2.03160         0.057739     -0.015173     -0.010549
Li	      4.36073      4.24339      4.08247         0.061213      0.004246     -0.026316
Li	      4.53819      2.17260      6.32934        -0.024264      0.050376      0.042961
Li	      6.37460      4.02132      6.29377        -0.030227      0.019981      0.019673
V	      8.47515      4.29364      4.42742        -0.109182      0.153450     -0.019736
V	      2.15931      4.28574      6.27828        -0.007170     -0.086783      0.045005
Cr	      4.21098      2.23197      2.08251         0.030225      0.022142      0.001941
Cr	      2.14648      2.10541      4.14686         0.062342     -0.091544      0.035600
Cr	     10.65034      8.54824     10.48905         0.023096     -0.032569      0.065318
Cr	      4.27487      6.37558      6.28695        -0.031357     -0.006342     -0.004381
Cr	      4.27151      4.27670      8.37405        -0.105942     -0.068737     -0.043370
Cr	      6.43068      6.36687      8.36625         0.090069      0.187309     -0.095883
Fe	      8.52854      6.42112     10.48469        -0.025790      0.028291     -0.019623
O	      2.24802      2.14625      2.17738        -0.016890      0.000296      0.035398
O	      4.28164      4.14314      2.11674        -0.026076     -0.056320      0.000447
O	      4.17826      2.01744      4.09556        -0.067993     -0.020474      0.020045
O	      6.55765      4.37640      4.17504         0.069911      0.047962      0.040071
O	      6.40410      2.14781      6.29487         0.020823      0.000311      0.008805
O	      8.55042      4.29710      6.14143         0.008217     -0.000143      0.118994
O	      2.03566      4.17443      4.25930        -0.110573      0.000261     -0.020222
O	      4.36700      6.47935      4.28266         0.017843      0.009002     -0.017401
O	      4.23065      4.36080      6.36789         0.003483      0.069654      0.091320
O	      6.32050      6.49180      6.30184        -0.093776     -0.072629     -0.061256
O	      6.28509      4.37243      8.47798         0.012044      0.011582     -0.005191
O	      8.42732      6.53158      8.45763        -0.099495      0.036632     -0.062803
O	      2.26418      6.27673      6.21751         0.106642      0.056986      0.055918
O	      4.32713      8.41063      6.29576         0.013510     -0.038330     -0.101060
O	      4.37864      6.37344      8.34931         0.049907     -0.008618     -0.043977
O	      6.42425      8.42438      8.32433         0.091466     -0.036411     -0.187519
O	      6.29721      6.30330     10.37724        -0.040394     -0.079129     -0.042745
O	      8.61687      8.65929     10.39924         0.029682      0.002519      0.007277
