# total energy = -237.71405774 eV
 
CRYSTAL
PRIMVEC
0.024538 6.175145 6.296738 
6.289397 0.008347 6.312951 
4.206531 4.141334 -0.008138 
PRIMCOORD
36 1
Li	      6.36723     10.26822      8.40039         0.004218     -0.032625      0.012770
Li	      8.25673      4.14190      8.39184        -0.019948      0.067343     -0.028901
Li	      4.24345      4.18173      4.29706         0.029578      0.010175      0.083118
Li	      6.15428      4.23411      6.49181        -0.029296     -0.011031     -0.037891
Li	      6.29304      4.09319     10.28237        -0.072013     -0.002549      0.007063
Li	      6.44131      8.23679      6.41975         0.000183     -0.009239      0.142930
Li	      4.27603      6.03069      6.39418        -0.022770      0.031659      0.012150
Li	      4.33912      4.20310      8.25987         0.010167     -0.012276      0.033342
Li	      6.24645      6.04856      8.31796         0.006478      0.077448      0.000147
V	      2.10473      2.07877      0.04867         0.131696     -0.226555     -0.042411
V	      2.17734      6.00461      4.09835         0.096314      0.273125     -0.104060
Cr	      4.25595     10.29819      6.31396         0.186642     -0.085774      0.017602
Cr	      4.24095      8.26518      8.38975         0.217407     -0.017130      0.057370
Cr	      4.23708      6.13375     10.43361         0.063657      0.022533     -0.290268
Cr	      6.28905      2.13017      4.14769         0.028694     -0.005492     -0.173892
Cr	      6.23051      6.19508      4.22103        -0.081139      0.052960      0.074776
Cr	      8.33842      6.27713      6.39394        -0.054778      0.247635      0.086012
Ni	      6.31162      2.13866      8.42914        -0.021699     -0.147399     -0.054261
O	      2.14794      2.07765      2.15804         0.135107      0.027344     -0.026242
O	      4.22967      4.12679      1.98145        -0.025046     -0.095665     -0.046756
O	      4.17689      2.00980      4.23610        -0.021643     -0.018633      0.003067
O	      6.43288      4.17236      4.20158        -0.016776      0.024879      0.014766
O	      6.29389      2.02629      6.25306        -0.027238     -0.063778     -0.129957
O	      8.50487      4.14559      6.19141        -0.050582     -0.114208      0.010601
O	      2.09036      4.23886      4.21212        -0.029432     -0.395734     -0.027842
O	      4.17367      6.18199      4.17801         0.079894     -0.011769      0.092786
O	      4.19426      4.02987      6.28995         0.016401     -0.122423     -0.000265
O	      6.38442      6.22160      6.16845         0.024690     -0.015099     -0.047893
O	      6.32545      4.10419      8.40176         0.015346      0.133366     -0.063968
O	      8.44493      6.20918      8.46028        -0.125181     -0.075594     -0.025516
O	      2.07031      6.24995      6.12067        -0.200298      0.216948      0.096042
O	      4.11745      8.30606      6.40870        -0.043030      0.081195      0.003721
O	      4.22867      6.26626      8.48340        -0.054060      0.034577      0.152683
O	      6.20706      8.27532      8.51818        -0.053935      0.012683      0.050519
O	      6.35272      6.26557     10.56690        -0.061636      0.001552      0.057100
O	      8.31748      8.22552     10.55914        -0.035972      0.147551      0.091557
