# total energy = -204.15791326 eV
 
CRYSTAL
PRIMVEC
0.025866 6.200736 6.217793 
6.279451 -0.012456 6.256723 
4.180904 4.154056 -0.002960 
PRIMCOORD
36 1
Li	      8.48668      8.31520     12.39873         0.037867      0.012811     -0.040064
Li	      6.39734      8.18355     10.50534        -0.009750     -0.006887     -0.003046
Li	      6.21861      2.18687      8.24030         0.038857     -0.017472      0.010432
Li	      6.32424      3.98674      6.39754        -0.001468     -0.038229      0.019701
Li	      6.16260      4.20502     10.33631        -0.019931      0.047329     -0.030536
Li	      6.14805      8.27861      6.19962         0.069127      0.012778     -0.038144
Li	      4.24484      6.42591      6.21257        -0.023822     -0.021218     -0.031309
Li	      4.41538      4.04342      8.37826        -0.036641      0.042667      0.023968
Li	      6.35064      6.02033      8.36295        -0.057653      0.003145      0.071209
V	      2.18076      6.06116      8.17878         0.004294      0.074839     -0.007250
V	      6.23236      6.23977      4.22097        -0.069268      0.096106     -0.257318
V	      4.20779      4.16542      4.27974        -0.037666      0.087873      0.032034
Co	      8.42697     10.28212     10.39441         0.098746     -0.176704      0.119639
Cu	      8.43648      6.16653      6.31806        -0.070787      0.226907      0.022151
Ni	     10.45316     10.32708     12.42434         0.128571     -0.031838      0.014257
Ni	      8.33598      6.32182     10.30131         0.009654     -0.035750      0.088056
Ni	      4.19871      8.25658      8.25245         0.042253     -0.044625      0.054964
Ni	      8.23179      4.14470      8.28538         0.194555     -0.105918     -0.046100
O	      2.11681      2.01061      2.24189        -0.124254     -0.067522      0.022010
O	      4.37303      4.11800      2.23273        -0.008694      0.077490      0.058570
O	      4.08418      2.03396      4.09383         0.014900      0.002677     -0.017137
O	      6.27850      4.24050      4.04813        -0.011870     -0.074942      0.026951
O	      6.17264      1.96653      6.26398        -0.163457      0.113015     -0.000318
O	      8.37185      4.19747      6.11017        -0.133805     -0.230043     -0.111675
O	      2.24752      4.13270      4.08985         0.023119     -0.040055      0.096991
O	      4.21782      6.09755      4.19537         0.000446      0.020955      0.036901
O	      4.23285      4.04163      6.04214         0.032800      0.133269     -0.046124
O	      6.32278      6.24725      6.00471         0.180425      0.001458      0.239587
O	      6.31586      4.10792      8.30338        -0.247743      0.010715      0.029085
O	      8.35192      6.14989      8.31999        -0.009000      0.103562      0.032497
O	      2.13658      6.25470      6.40921         0.049874      0.009489     -0.001652
O	      4.21996      8.35276      6.30619        -0.024148     -0.145043     -0.152776
O	      4.03303      6.20940      8.44281         0.095478     -0.084575     -0.049764
O	      6.28852      8.47850      8.29400         0.086145     -0.105589     -0.010518
O	      6.19750      6.19873     10.40325        -0.006140      0.050191     -0.167609
O	      8.34464      8.35499     10.42139        -0.051012      0.099132      0.012338
