# total energy = -205.80245311 eV
 
CRYSTAL
PRIMVEC
0.049713 6.236671 6.330528 
6.159591 0.032792 6.347474 
4.118990 4.181016 0.009820 
PRIMCOORD
36 1
Li	     10.18233      4.24024      6.40208         0.106244     -0.053966      0.005590
Li	      4.15578      2.17041      2.24860        -0.035317     -0.037899     -0.017186
Li	      8.17225      4.23417      4.40653         0.152785     -0.068599      0.020341
Li	      8.27231      4.13430      8.32094        -0.080267      0.002152      0.042444
Li	      2.14677      2.00239      4.19410        -0.060786      0.062073     -0.008244
Li	      6.32301      4.09446      6.16882        -0.099599      0.017243      0.020293
Li	      2.09031      6.30071      4.30213        -0.016912     -0.028660      0.049981
Li	      8.16376      8.29396      8.51390         0.086243      0.040894     -0.032284
Li	      6.26701      6.41462      8.44113         0.020647     -0.083097     -0.026848
V	      4.07331      6.18585      2.18886        -0.085105      0.198832      0.042912
V	      6.18571      4.39484     10.48442         0.018464     -0.027632      0.072424
V	      4.24255      6.18735      6.45028        -0.043580      0.055106     -0.248546
Co	      8.19250      2.14696      6.36720         0.073514     -0.074027     -0.017553
Cu	      6.23706      8.41189     10.51719         0.065292     -0.307152     -0.076832
Cu	      4.14429      4.14580      4.20236         0.062684      0.036196      0.196103
Cu	      6.15476      8.37277      6.39533         0.069815     -0.076889     -0.031075
Ni	      6.22066     10.40285      8.46536         0.102397      0.071185     -0.219623
Ni	      8.28656      6.12505      6.30448        -0.205933      0.166715      0.180107
O	      6.22002      8.38234      8.29104        -0.006628     -0.067123      0.459147
O	      1.91669      2.06311      2.00171         0.020345      0.105837      0.003882
O	      4.10231      4.25037      2.25830        -0.101387     -0.080238     -0.266801
O	      4.20365      2.13105      4.32008        -0.078220     -0.084066     -0.249550
O	      6.27753      4.12032      4.13961        -0.120204      0.134167      0.135603
O	      6.23686      2.08666      6.52494         0.051330      0.053132     -0.153170
O	      8.23133      4.10266      6.40256        -0.001589      0.013371     -0.062772
O	      1.80786      4.18278      4.41666         0.159185     -0.018458     -0.177893
O	      4.12473      6.32597      4.18374         0.028604      0.001541     -0.007403
O	      4.11445      4.37867      6.19063        -0.041290     -0.243108      0.110883
O	      6.04349      6.24803      6.29445         0.224371     -0.037128     -0.059424
O	      6.14831      4.12491      8.71766        -0.036939     -0.059404     -0.186018
O	      8.40139      6.29930      8.35073        -0.011130      0.025077      0.121443
O	      2.24699      6.39762      6.32802        -0.071936      0.149795      0.030049
O	      4.01504      8.20840      6.18558        -0.125085      0.004006     -0.042324
O	      4.18562      6.26190      8.18306         0.083591      0.010530      0.348701
O	      6.18084      6.16636     10.52804        -0.019162      0.215874      0.003408
O	      8.34861      8.36821     10.73179        -0.084443     -0.016280      0.040234
