# total energy = -136.19378768 eV
 
CRYSTAL
PRIMVEC
-4.177638 -0.011643 3.950778 
4.177666 0.011678 3.950809 
2.106259 6.246076 0.000067 
PRIMCOORD
24 1
Li	     -1.03191      3.13699      4.94545         0.005855     -0.011109     -0.010850
Li	      1.04511      0.99896      0.99193        -0.005246      0.006306     -0.005581
Li	      1.04300      0.99713      4.93410         0.000099      0.011767      0.002988
Li	      1.05815      5.22548      4.94229        -0.003243     -0.001431     -0.008655
Li	      3.14789      3.14917      4.93050         0.000721     -0.011950      0.012443
Li	      1.05401      5.22376      0.98294         0.004270      0.004347      0.009987
Mn	      1.08547      3.14730      2.96286        -0.023986     -0.040412      0.000022
Mn	      1.03877      3.13928      6.91306         0.009974     -0.026646      0.001376
Mn	     -1.04599      1.01420      2.96285        -0.001037      0.057156     -0.003532
Ni	      3.13401      1.01478      2.96313         0.004509     -0.010315     -0.000970
Ni	     -1.04409      5.20384      2.96283         0.015408     -0.004000     -0.000644
Ni	      3.15748      5.21913      2.96250        -0.011485      0.000657      0.000205
O	      3.22451      3.08889      2.96275         0.049425      0.046995     -0.000097
O	      0.95444      1.09102      2.96302        -0.071646      0.097589     -0.000917
O	      1.12429      1.14160      6.91354         0.073405      0.099953      0.000083
O	      1.06748      5.12153      6.91325        -0.008681     -0.141091      0.000969
O	     -1.11081      3.02840      2.96241        -0.033623     -0.048601      0.001248
O	      1.04408      5.24668      2.96285         0.008147     -0.038412     -0.000342
O	     -1.03294      5.19706      4.92830         0.004360      0.007224      0.027573
O	      1.05581      3.13768      1.00258        -0.007811     -0.008482     -0.100361
O	      1.05526      3.13772      4.92270        -0.005945     -0.007367      0.102012
O	     -1.04421      1.02236      4.87409        -0.002506      0.004498     -0.130418
O	      3.14516      5.20826      4.94786         0.002362      0.008096     -0.028074
O	      3.13377      1.03367      5.00238        -0.003327      0.005229      0.131534
