# total energy = -204.97063397 eV
 
CRYSTAL
PRIMVEC
0.012328 6.146621 6.614822 
6.093254 0.042822 6.581118 
4.107472 4.123212 -0.017588 
PRIMCOORD
36 1
Li	      2.09095      6.21322      8.72904        -0.011427     -0.064277      0.013025
Li	      6.22402      8.16811     10.93588        -0.068078      0.065243     -0.041324
Li	      6.21007      2.24279      8.68910        -0.022827     -0.032170     -0.026298
Li	      7.96854      4.10630      8.86531         0.063616      0.045209      0.038429
Li	      6.09244      4.13462      6.86571        -0.026077     -0.031028      0.038520
Li	      6.02901      4.15557     10.72482         0.011060     -0.038778      0.026352
Li	      1.98977      4.14707      6.57712        -0.001213     -0.003710      0.009574
Li	      4.21771      4.16533      8.95085        -0.133269      0.014401      0.011317
Li	      6.07486      5.99918      8.90473        -0.010436      0.026361     -0.063085
V	      4.20910      8.14481      8.71357         0.152337      0.127365     -0.088237
V	      4.17436      4.08464      4.23246         0.303997     -0.183908      0.021816
V	      8.08958      6.20753      6.82027         0.166086      0.073893     -0.164698
Co	      6.12720      6.22910     13.05946        -0.150699     -0.016439     -0.144240
Cu	      8.20451     10.21888     10.94286        -0.155696      0.057792     -0.036844
Cu	      1.99550      2.13558      4.32369         0.052922     -0.150072      0.063001
Cu	      8.07876      6.20545     11.02880         0.025785     -0.006487      0.041608
Cu	      4.01172      6.04978      6.64180         0.165697      0.016428     -0.037779
Ni	      8.11198      2.16072      6.58690        -0.067056      0.040750     -0.007501
O	      6.12364      6.15598     11.04561         0.135418      0.017333      0.727365
O	      8.14837      8.26374     11.11791         0.027740     -0.275210     -0.089314
O	      2.23835      2.11570      2.25774        -0.077366     -0.007492      0.000528
O	      4.09048      4.15949      2.46056         0.004096     -0.014430     -0.201765
O	      4.19986      2.16351      4.24629        -0.128890      0.176301      0.004957
O	      6.02604      4.25920      4.33302        -0.050342      0.001304      0.009294
O	      5.99577      1.95160      6.62965        -0.036963     -0.017976     -0.144138
O	      8.26988      4.30611      6.52681         0.181644     -0.118684     -0.102390
O	      2.21517      4.09266      4.42957        -0.133988      0.196822      0.013299
O	      3.93815      5.95241      4.62782         0.035844      0.149500     -0.062576
O	      4.15076      3.84892      6.37075        -0.027269     -0.039541     -0.045931
O	      6.30243      6.15680      6.41679        -0.068617     -0.033022     -0.054809
O	      6.09870      4.09930      8.80414        -0.023915      0.064994      0.064825
O	      8.08568      6.24678      8.52230        -0.032563      0.062467      0.126445
O	      1.95034      6.24884      6.72003        -0.191625     -0.085424     -0.089268
O	      4.06583      8.43324      6.77978         0.087933      0.060459     -0.110809
O	      4.09849      6.25608      8.56187         0.006126     -0.059783      0.265742
O	      5.97266      8.26246      8.78431        -0.001982     -0.018190      0.034910
