# total energy = -205.77811446 eV
 
CRYSTAL
PRIMVEC
0.044249 6.168526 6.531254 
6.280679 0.066830 6.509670 
4.225057 4.134175 0.006902 
PRIMCOORD
36 1
Li	      0.03210      0.02100      0.04074         0.006271      0.004329     -0.066644
Li	      4.37949      8.13933      8.88939        -0.111061      0.082522     -0.015732
Li	      4.26372      6.32465     10.74118        -0.104303     -0.073585      0.045086
Li	      6.20980      8.19846     10.71397         0.018674      0.085153      0.093263
Li	      2.27901      2.15848      4.31889        -0.016535     -0.075485      0.019489
Li	      4.15905      4.01730      4.35254         0.043578      0.056024      0.004749
Li	      6.32503      8.28692      6.71011        -0.027675      0.013355      0.010855
Li	      4.19141      6.24776      6.83736        -0.002354      0.003897      0.025143
Li	      8.34276      8.34056      8.66452         0.035930     -0.034888     -0.017621
V	      2.32834      8.19661      6.44663        -0.078578      0.193989      0.127639
V	      4.23446      6.13035      2.20391        -0.020435      0.363845     -0.082092
V	      6.08577      4.24957      6.39853         0.152349      0.005303     -0.039319
Co	      6.24679      6.22429      8.71491        -0.185588      0.121931      0.057280
Cu	      6.49918     10.17456      8.79438        -0.370273      0.241413     -0.049964
Cu	      2.12136      4.09613      2.17447         0.074935     -0.076552     -0.081703
Cu	      4.20846      2.05479      6.34260        -0.019256      0.029487      0.110396
Cu	      6.36144      4.24795     10.81082        -0.117425     -0.207492      0.152546
Cu	      8.37392      6.23101     10.86163         0.218763      0.143474      0.078591
O	      6.35724      8.20592      8.68635         0.164730      0.135513      0.087143
O	      6.42631      6.16425     10.69628         0.010979      0.115586      0.395083
O	      1.95235      2.12718      2.09994         0.153624     -0.137120      0.101550
O	      4.44535      4.35428      2.20604         0.192314     -0.415139     -0.011122
O	      4.19963      2.09225      4.45973         0.010926     -0.002553     -0.245189
O	      6.34724      4.16251      4.68145        -0.003842      0.005902     -0.146559
O	      6.42100      2.23039      6.65042         0.118281     -0.092767      0.014472
O	      8.31765      3.99743      6.65704        -0.023549     -0.043128     -0.017170
O	      2.05258      4.22098      4.17735         0.084897     -0.063723     -0.076200
O	      4.13250      6.35668      4.01137        -0.022773     -0.042730      0.110655
O	      4.32091      4.21912      6.43816        -0.256823      0.017719      0.006433
O	      6.30814      6.05947      6.64932        -0.079482      0.004711     -0.268551
O	      6.17609      4.06169      8.41878         0.000645     -0.200410     -0.075885
O	      8.63217      6.12143      8.36004        -0.071737      0.130982     -0.090577
O	      2.11669      6.42230      6.61663        -0.002926     -0.285274     -0.039725
O	      4.06910      8.28673      6.67323         0.165835     -0.005126      0.135455
O	      4.17942      6.16453      8.78288         0.075806     -0.040565      0.040094
O	      8.49856      8.26783     11.12866        -0.013923      0.041402     -0.291867
