# total energy = -205.32557772 eV
 
CRYSTAL
PRIMVEC
0.010447 6.271977 6.167866 
6.312031 0.004181 6.173579 
4.197986 4.175453 0.012665 
PRIMCOORD
36 1
Li	      6.36803      0.10768      6.14612         0.024114      0.117271      0.000322
Li	      6.24512      4.22783      2.14333        -0.080305      0.112514      0.081802
Li	      8.30481      4.25354      4.19588        -0.021792     -0.020778      0.020185
Li	      6.22360      2.18220      4.21018         0.014451      0.075899      0.053889
Li	      0.06966      2.06004      1.98377         0.075884     -0.028931     -0.066747
Li	      6.39294      6.17982      4.15261        -0.023090     -0.026244     -0.037971
Li	      4.29138      4.09258      4.20248         0.009735     -0.004843      0.032533
Li	      4.26965      2.15415      5.99775         0.059714      0.031393     -0.014764
Li	      2.21615      4.23482      6.11362         0.096000      0.027144     -0.043516
V	      2.24369      4.14497      2.01750        -0.031025      0.008865      0.009800
V	      4.19192      8.28675      4.18353         0.109726     -0.000907      0.000413
V	      6.26338      6.37807      8.17165         0.114826     -0.104613     -0.068571
Co	      8.36769      2.08492      6.17358        -0.076693      0.038765      0.129529
Ni	      4.16903      2.09860      2.13017         0.018169      0.057430     -0.113792
Ni	      2.08523      6.25954      4.16986         0.000135     -0.074745     -0.011142
Ni	      4.14803      6.22528      6.16400         0.026501      0.051789     -0.024479
Ni	      6.26176      4.08997      6.06722         0.069493      0.019633     -0.019228
Ni	      8.42441      8.33218      8.22843        -0.005701     -0.081797      0.083849
O	      2.10894      2.22105      1.93680        -0.078545     -0.071195     -0.055916
O	      4.00572      4.20618      2.08265         0.083138      0.048190      0.046335
O	      4.19122      2.07921      4.06422         0.027476     -0.009532      0.127994
O	      6.30393      4.20786      4.10917        -0.048666     -0.002866     -0.257133
O	      6.46442      2.10559      6.17283         0.049432     -0.167222      0.008407
O	      8.36810      4.06696      6.30736        -0.019018     -0.013607     -0.133329
O	      1.98698      4.19333      4.01169        -0.073064     -0.077821      0.059155
O	      4.18113      6.44901      4.09391         0.011142      0.001470     -0.084943
O	      4.22698      4.22669      6.24197        -0.089209     -0.130024     -0.093122
O	      6.29381      6.21258      6.37350         0.038010      0.044631      0.033668
O	      6.36987      4.26318      8.28942        -0.052018      0.003260      0.052010
O	      8.26094      6.18067      8.25188        -0.103506      0.048083     -0.072002
O	      2.12639      6.40926      6.18286        -0.085500      0.031085      0.152710
O	      4.10076      8.35328      6.15207        -0.049256      0.048633     -0.020381
O	      4.40870      6.24655      8.24098         0.034926     -0.037720      0.117262
O	      6.33289      8.16760      8.25406         0.034288     -0.014394      0.041969
O	      6.33590      6.08810     10.13780        -0.057963      0.008476      0.035128
O	      8.52080      8.32655     10.34829        -0.001807      0.092708      0.030074
