# total energy = -208.77677541 eV
 
CRYSTAL
PRIMVEC
-0.015354 6.261670 6.352051 
6.089724 0.028734 6.308174 
4.098879 4.184218 -0.020140 
PRIMCOORD
36 1
Li	      8.09485      2.21405      6.29678         0.029932      0.051046     -0.048512
Li	      8.14456      4.20827      4.25473        -0.015660      0.016238      0.025687
Li	      6.10152      2.12257      4.26331        -0.013854      0.012686      0.045211
Li	      8.15108      4.22203      8.25567        -0.016182      0.013743      0.021596
Li	      4.04004      4.22117      4.31594        -0.011578     -0.012916      0.068063
Li	      8.19989      6.25653      6.31773         0.005082      0.012731      0.012611
Li	      2.08446      6.22707      4.29494         0.001800     -0.030744     -0.033001
Li	      3.96067      6.18892      6.38446        -0.009462     -0.010826     -0.034948
Li	      6.08698      6.32840      8.39263         0.008337     -0.016141      0.028878
V	     10.10398      6.26563      8.38518         0.017018      0.064132     -0.043691
V	      6.23115      6.22089      4.29019        -0.032729      0.000007     -0.086645
V	     10.08473      8.48859     10.55151         0.122298      0.051095     -0.173429
Co	      4.06922      8.32003      8.41492        -0.036740     -0.051070      0.156211
Co	      2.05498      4.18197      6.29604         0.043570     -0.046337      0.048142
Cu	      2.03514      6.24777      8.38041         0.035065      0.060856      0.164092
Ni	      6.05899      0.06014      6.29044        -0.037184      0.047255     -0.111993
Ni	      6.14553      4.19266      6.35412        -0.075185      0.055770      0.019451
Ni	      4.02397      4.25309      8.37978         0.034706     -0.163261      0.105545
O	      1.95899      2.13531      2.30789        -0.098724      0.050149     -0.012169
O	      4.17385      4.24182      2.05943         0.009707     -0.088506      0.041344
O	      3.91514      2.15350      4.17204         0.122470     -0.003079     -0.126744
O	      6.06368      4.41419      4.31599         0.035707      0.007144     -0.107680
O	      6.13766      2.13358      6.45125         0.052044     -0.031295      0.057129
O	      8.14544      4.20471      6.29328         0.058709      0.007623      0.005068
O	      1.94259      4.05680      4.33143         0.015108      0.047503      0.036369
O	      4.19714      6.41146      4.10742        -0.033412     -0.016710      0.035182
O	      4.00283      4.18211      6.37210        -0.085184     -0.007634     -0.164809
O	      6.10679      6.35198      6.13844        -0.016808      0.119208      0.098857
O	      6.10881      4.13961      8.55168         0.107234     -0.004604      0.087728
O	      8.32051      6.30626      8.48153         0.050055     -0.081978      0.019567
O	      1.96647      6.08191      6.25418         0.102897     -0.118248     -0.084212
O	      4.17075      8.34339      6.12520        -0.064668     -0.093093      0.138361
O	      3.95913      6.29411      8.45725        -0.081623      0.265611     -0.041192
O	      6.09399      8.32863      8.22281        -0.068934     -0.050913     -0.147105
O	      6.11616      6.08812     10.49167        -0.033216     -0.049140     -0.023689
O	      8.31105      8.34382     10.52338        -0.120595     -0.006304      0.024727
