# total energy = -207.94538316 eV
 
CRYSTAL
PRIMVEC
0.010136 6.177187 6.336887 
6.206126 0.016091 6.330519 
4.114774 4.091775 0.033461 
PRIMCOORD
36 1
Li	      2.05685      2.06435      0.06090         0.006827     -0.005321      0.174698
Li	      4.13673      2.04717      2.26184        -0.200857      0.064574     -0.038571
Li	      4.17347      6.30187     10.44648        -0.064981     -0.066600     -0.004557
Li	      6.00968      2.05432      4.22637         0.013652      0.060114      0.001542
Li	      6.20354      2.09440      8.41412         0.172745     -0.097050      0.036996
Li	      2.01915      4.05229      2.19200         0.017070     -0.080483     -0.046132
Li	      4.12557      3.94924      4.22957         0.071347      0.051343     -0.043628
Li	      4.10709      2.07795      6.13784         0.009736      0.009188     -0.040434
Li	      4.17573      6.13129      6.41430        -0.044960      0.020310     -0.069905
V	     10.14868      4.15114      6.51405         0.055114     -0.171539      0.247147
V	      6.16256      4.05132      6.26842         0.071238     -0.174521     -0.378504
V	      2.14361      6.21912      4.22738         0.217777      0.077859      0.278434
Co	      2.16978      6.27411      8.38616        -0.140990     -0.953012      0.154813
Co	      4.17907      4.11416      8.40221         0.009753      0.068238      0.041141
Cu	      6.21486      4.14659     10.55889        -0.013018     -0.130958      0.097011
Cu	      2.11014      4.10574      6.33489        -0.054670      0.074804     -0.009233
Ni	      6.18349      6.19361      8.41992         0.053856      0.004035      0.097812
Ni	      2.13920      2.05089      4.25147        -0.038214     -0.011341     -0.371121
O	      2.05473      1.89120      2.24313        -0.082504      0.556110     -0.112834
O	      4.13542      4.15894      1.97382         0.197652      0.064120     -0.031703
O	      4.09405      2.05839      4.17739         0.264655      0.046677      0.093093
O	      6.20574      4.05902      4.43067         0.006474     -0.021659      0.372300
O	      6.19913      1.98962      6.31623        -0.052468     -0.079222     -0.004601
O	      8.33194      4.11392      6.38720         0.077877      0.017146      0.061286
O	      1.99951      4.16170      4.35111         0.036700      0.081131     -0.074052
O	      3.99264      6.17887      4.30999        -0.164921     -0.019528      0.000391
O	      4.25143      4.06559      6.45007        -0.027156      0.000335      0.212561
O	      6.19089      6.04887      6.35788        -0.012167      0.183742      0.061016
O	      6.15382      4.10342      8.23926        -0.084533      0.100149      0.040824
O	      8.20963      6.24542      8.62377        -0.039863      0.137235      0.000510
O	      1.95261      6.26980      6.30402        -0.073341     -0.235993     -0.483513
O	      4.09708      8.49332      6.44929        -0.042996      0.193886     -0.048235
O	      4.15964      6.04327      8.41241        -0.161422      0.081824      0.033809
O	      6.34842      8.30201      8.34978         0.142311      0.090153     -0.034343
O	      6.35300      6.18358     10.65852        -0.044722      0.045465     -0.092109
O	      8.35792      8.18607     10.38022        -0.081000      0.018790     -0.121910
