# total energy = -207.73291466 eV
 
CRYSTAL
PRIMVEC
-0.004963 6.248977 6.491473 
6.057362 0.044039 6.442481 
4.094361 4.189889 -0.026669 
PRIMCOORD
36 1
Li	      4.03195      4.14483      0.00708         0.015383     -0.048516     -0.018192
Li	      4.01475      2.09955      2.12260         0.082482      0.027694     -0.027420
Li	      8.13035      4.27166      8.45665         0.012074     -0.081898     -0.006910
Li	      1.94985      2.16770      4.17950         0.056906      0.058235      0.042776
Li	      4.05811      4.29094      4.25457         0.032804     -0.029233      0.009323
Li	      8.12056      6.16618      6.64187         0.035617      0.025132     -0.028036
Li	      6.13487      4.31860      6.45280        -0.071612     -0.061836     -0.045324
Li	      4.04342      6.28357      6.38764        -0.002754      0.016802     -0.029963
Li	      6.12672      6.21669      8.66837        -0.074325      0.047017      0.044632
V	      1.96548      6.27334      8.52536         0.049988     -0.208845     -0.076731
V	      5.95857      2.10664      4.48678         0.110634      0.013788      0.162981
V	      6.17551      8.15113      6.41768        -0.402888      0.076467      0.043983
Co	      2.10822      2.16490      0.01543        -0.331478     -0.243261     -0.029454
Co	      4.08321      8.31184      4.34444         0.053670      0.033693      0.225084
Cu	      8.10034      4.22589      4.31545        -0.015962      0.200216      0.044884
Cu	      4.12533      6.29835      2.20447         0.090595     -0.136163     -0.120817
Cu	      4.10237      4.15430      8.61991        -0.159933      0.160832     -0.174240
Ni	      2.10350      6.23298      4.28953        -0.075849     -0.209554      0.124038
O	      8.22768      6.35634      8.64426        -0.111650     -0.075346     -0.069959
O	      2.02433      2.00431      2.12293         0.160648      0.388120     -0.635128
O	      4.22618      4.23606      2.15738        -0.157411     -0.053731      0.013366
O	      4.25677      2.18899      4.17239        -0.395502      0.029116     -0.074617
O	      6.14288      3.96134      4.13978        -0.020389      0.194482     -0.074113
O	      6.00678      2.16823      6.20609        -0.220927      0.041598      0.201899
O	      8.08328      4.19305      6.31798         0.075432     -0.683304      0.221762
O	      1.89883      4.21420      4.52088        -0.052165     -0.145524     -0.115837
O	      4.09077      6.43071      4.43285         0.181298      0.005500     -0.003149
O	      3.82562      4.20310      6.32273         0.285816      0.062488     -0.063076
O	      6.10541      6.41442      6.49150         0.056085     -0.299380      0.005259
O	      6.05102      4.17161      8.87268         0.058137      0.075854      0.107713
O	      2.02516      6.26493      6.60710         0.055098      0.683649     -0.020920
O	      4.21302      8.39809      6.30842         0.348029     -0.000313     -0.153304
O	      3.89185      6.16991      8.76381         0.047740      0.024674     -0.096591
O	      6.09209      8.41259      8.36607        -0.036056      0.038971     -0.052093
O	      6.08032      6.46082     10.71670         0.040115     -0.116317     -0.089520
O	      8.10329      8.26331     10.86953         0.280348      0.188890      0.757692
