# total energy = -206.72245844 eV
 
CRYSTAL
PRIMVEC
0.019034 6.326468 6.207013 
6.111282 0.022436 6.202341 
4.086733 4.226564 0.002986 
PRIMCOORD
36 1
Li	      2.09336      8.30705      6.23048         0.005067     -0.018963     -0.018529
Li	      2.08714      6.39130      8.16323        -0.042197     -0.036258      0.003395
Li	      2.03505      4.19245      2.14101        -0.022904      0.050237      0.010803
Li	      4.10075      2.15831      6.22069        -0.037388      0.037891      0.028083
Li	      2.06667      6.22937      4.28277        -0.028929      0.034227     -0.052947
Li	      2.00776      4.34761      6.12479        -0.031097     -0.078027      0.052294
Li	      4.00708      6.32710      6.24721         0.039391      0.000709     -0.049751
Li	      4.08718      4.28812      8.18140         0.020286     -0.063432     -0.082305
Li	      6.11041      6.33117      8.16802         0.066292      0.031145     -0.096537
V	      6.27035      8.38548     10.18946        -0.025975     -0.143081     -0.131464
V	     10.08952      6.32293      8.28756        -0.323915      0.057516      0.043806
V	      6.19228      4.32401      6.24661        -0.175427     -0.421702      0.182029
Co	      4.13255     10.53892      6.23060         0.118963     -0.127227      0.003141
Co	     10.19043      8.47167     10.35469         0.001493     -0.066374     -0.036542
Cu	      3.95388      2.07640      2.00450        -0.021911      0.107850     -0.183155
Cu	      4.11164      6.39684     10.27426         0.174685      0.000054      0.039668
Cu	      2.05804      2.20123      4.19009        -0.045107     -0.047169     -0.245480
Cu	      4.02602      4.25012      4.15195        -0.016316      0.190527      0.095994
O	      4.09437      6.48290      8.31027        -0.013123     -0.049448      0.068795
O	      1.94162      2.09213      2.23121         0.132032      0.075196      0.157733
O	      4.05390      4.23932      2.08865        -0.030261     -0.161280     -0.185857
O	      4.36770      2.28503      4.24431        -0.040641     -0.121482      0.016017
O	      6.26977      3.99448      4.22550        -0.167100      0.154285     -0.027885
O	      6.19176      2.04406      6.28211         0.010730      0.007529     -0.062937
O	      8.09321      4.21607      6.15556         0.137844      0.017734     -0.042411
O	      1.84870      4.24888      4.13718        -0.099640      0.001546      0.031418
O	      4.02536      6.44273      4.07628        -0.017798     -0.075387     -0.010272
O	      4.30964      4.25671      6.11148         0.086674     -0.049362      0.110283
O	      6.17800      6.20859      6.12517         0.070341      0.262576      0.035815
O	      6.10317      4.14713      8.22859         0.052426      0.052653      0.108509
O	      8.32794      6.34689      8.24153         0.057994     -0.030493      0.013377
O	      1.90457      6.29205      6.24579        -0.099373      0.079949      0.048545
O	      4.05671      8.62532      6.03483        -0.009420      0.065602      0.000085
O	      6.15110      8.37863      8.43671         0.056026      0.091047      0.112447
O	      6.08399      6.44741     10.45583         0.081058      0.058746      0.049923
O	      8.08197      8.36071     10.30898         0.137218      0.112663      0.013914
