# total energy = -209.45773304 eV
 
CRYSTAL
PRIMVEC
-0.004084 6.417604 6.206471 
6.117254 -0.029745 6.230582 
4.061256 4.278203 -0.001877 
PRIMCOORD
36 1
Li	      6.18399     10.50379      8.36324        -0.037615      0.043611      0.042917
Li	      6.01756      8.51802     10.24679         0.092848      0.015806      0.017762
Li	      6.17735      6.31486      4.30421        -0.048243     -0.060367     -0.028645
Li	      6.12135      4.33655      6.21107         0.098163     -0.024583     -0.055944
Li	      6.05354      4.35763     10.33833        -0.087502      0.028351      0.046437
Li	      7.95297      6.37535     10.28087        -0.050170      0.018488      0.018410
Li	      4.22925      6.27304      6.32368        -0.032889      0.050304     -0.047212
Li	      4.02915      4.37880      8.18397         0.084573      0.026671      0.126291
Li	      6.04814      6.50938      8.25960        -0.026970     -0.037984      0.082546
V	      1.98929      8.24707      6.04108         0.255678     -0.110072     -0.189213
V	      4.06920      6.50608      2.21752         0.057441      0.063004      0.127704
V	      2.01417      4.33069      2.16763        -0.092111     -0.023551     -0.041217
Co	     10.14068      4.26640      6.21155        -0.013826      0.076196     -0.323015
Co	      4.02341      0.07068      4.08196         0.219832     -0.216720      0.050117
Co	      4.07547      2.15379      6.23598        -0.037626     -0.246714      0.109214
Cu	      4.12056      8.48626      8.28440        -0.020118     -0.200776      0.017251
Cu	      4.25063      4.23191      4.19911        -0.068664     -0.095840      0.006074
Cu	      6.13441      8.43755      6.22604        -0.116774      0.068741     -0.085759
O	      6.02530      8.55993      8.14552         0.056002     -0.043498     -0.009114
O	      2.02486      2.32829      1.87354        -0.071088      0.029479      0.030622
O	      4.04976      4.36921      2.02938         0.003897      0.090884      0.040663
O	      4.08191      2.02864      4.33997         0.174848      0.366507      0.187051
O	      6.20881      4.26539      4.15178        -0.122896     -0.073987     -0.106722
O	      6.19784      2.13394      6.41490        -0.058716      0.011809     -0.005852
O	      8.19011      4.44194      6.37778        -0.089478      0.138884      0.106981
O	      2.11901      4.31747      3.99856        -0.099804     -0.009525     -0.066740
O	      4.11388      6.45810      3.97554         0.043099     -0.180700     -0.004930
O	      4.17888      4.08298      6.14254        -0.070045      0.038711      0.003329
O	      6.24403      6.45815      6.24239         0.117965      0.056035      0.036688
O	      6.19796      4.14734      8.33291        -0.045540     -0.074107     -0.017672
O	      8.21696      6.31478      8.23969         0.031853      0.083509     -0.002925
O	      1.96661      6.46129      6.12537         0.054247      0.091573      0.003208
O	      3.74394      8.54551      6.12407        -0.106191      0.034896      0.004527
O	      4.06674      6.48749      8.32574        -0.042238     -0.117137     -0.142185
O	      5.92502      6.33736     10.48229         0.016296      0.157970      0.087913
O	      7.98350      8.51015     10.53970         0.031762      0.024136     -0.018563
