# total energy = -202.41171266 eV
 
CRYSTAL
PRIMVEC
0.016283 6.259712 6.263082 
6.250024 -0.033685 6.314000 
4.147299 4.187132 -0.003171 
PRIMCOORD
36 1
Li	      4.28275     10.32494      6.40921         0.030016      0.005356      0.104319
Li	      1.98697      0.03773      2.01947        -0.033930      0.032202     -0.048139
Li	      4.10925      2.19497      2.05319        -0.025070      0.010772      0.019709
Li	      8.32388     10.33434     10.50194         0.051032     -0.020547     -0.003520
Li	      4.21361      6.13887      2.16210         0.010249     -0.052300     -0.008521
Li	      4.09678      4.20468      4.09910        -0.006361     -0.015627     -0.062866
Li	      2.14868      6.25325      4.29152        -0.035577     -0.009815      0.061686
Li	      2.01308      4.33502      6.20127         0.013693      0.025589     -0.000455
Li	      8.35814      8.31021      8.46379         0.015732     -0.018491      0.005799
V	      4.19114      2.08883      6.23621        -0.056585      0.010801      0.236328
V	      6.23998      4.15434      6.23700         0.023602      0.092200      0.105023
V	      6.16064      6.37552      8.49602         0.023391     -0.051041     -0.189143
Cu	      4.12996      8.27988      4.22907        -0.004608      0.129807     -0.239881
Ni	      2.12260      8.27451      6.28706        -0.076566      0.069561      0.082526
Ni	      6.33554      8.34921     10.46920        -0.137402     -0.022952      0.003493
Ni	      2.13434      4.16135      2.09884        -0.158907      0.077870     -0.031170
Ni	      2.05781      2.10479      4.09198         0.085954     -0.113378      0.001891
Ni	      4.08127      6.25835      6.24059         0.085464     -0.207811      0.208594
O	      2.10733      2.15863      2.06822        -0.050542     -0.127287      0.015993
O	      4.05882      4.16971      2.11717         0.126951      0.001914      0.073959
O	      4.18583      2.04310      4.40687         0.004524      0.041971     -0.084658
O	      6.25903      4.17681      4.38672        -0.025853      0.043366     -0.033413
O	      6.18162      2.18114      6.30222        -0.078573      0.026779      0.066489
O	      8.23902      4.24511      6.31746         0.009727      0.008594     -0.104142
O	      1.95977      4.12376      4.11780        -0.020938      0.113418      0.194824
O	      4.17922      6.31969      4.20219        -0.031725      0.032076     -0.062325
O	      4.28040      4.07815      6.34421         0.021174     -0.047503     -0.089967
O	      6.28664      6.18846      6.32224         0.065406     -0.024834      0.008281
O	      6.32677      4.30971      8.23724        -0.020731     -0.034867      0.077186
O	      8.16793      6.21336      8.18866        -0.013680      0.066850     -0.106900
O	      2.10249      6.27540      6.33582        -0.114841     -0.112765     -0.035878
O	      4.14681      8.31190      6.18622         0.092185      0.028326     -0.095608
O	      4.39954      6.21423      8.31458         0.060063      0.051010      0.067539
O	      6.28084      8.15883      8.41400        -0.046656      0.041302     -0.095922
O	      6.27837      6.21421     10.26548        -0.000567     -0.076523      0.034737
O	      8.35790      8.32823     10.53524         0.219949      0.025978     -0.075864
