# total energy = -136.59029723 eV
 
CRYSTAL
PRIMVEC
-4.184631 -0.000294 -0.000015 
0.000005 -0.000179 7.952470 
-2.091875 6.202518 -0.000168 
PRIMCOORD
24 1
Li	     -3.13680      5.17051      0.97763        -0.005491     -0.001016      0.021297
Li	     -3.13763      5.17084      4.98706        -0.003466     -0.000923     -0.023195
Li	     -5.23129      3.10690      0.96873         0.002054     -0.000329      0.020448
Li	     -5.23103      3.10445      4.99506         0.000359      0.006929     -0.019308
Li	     -3.13962      1.02985      0.96930         0.001936     -0.000586      0.012986
Li	     -3.13968      1.03141      4.99604         0.001947     -0.004804     -0.015244
Mn	     -3.13778      3.12610      2.98160         0.020077     -0.018090      0.002656
Mn	     -1.04664      1.01061      2.98207        -0.022698      0.018709      0.007022
Mn	     -5.23071      5.16901      6.95857        -0.000274      0.002716     -0.001879
Ni	     -3.13921      3.08042      6.95778         0.000611     -0.023493      0.003298
Ni	     -1.04726      1.05622      6.95912         0.000314      0.024891     -0.001668
Ni	     -5.23003      5.16915      2.98309        -0.000850      0.002093     -0.005532
O	     -3.13769      5.17006      2.98231        -0.001450     -0.001954      0.001920
O	     -3.13856      5.16941      6.95834         0.001149      0.001137      0.001208
O	     -1.04563      3.06347      2.98175         0.004608     -0.133506      0.002010
O	     -5.23135      3.16385      6.95831         0.004589      0.127733     -0.000211
O	     -3.13871      1.07267      2.98226        -0.007379      0.128641      0.000262
O	     -3.13953      0.97196      6.95900         0.002788     -0.130301     -0.003062
O	     -1.04618      1.03111      1.09726        -0.005318      0.006539      0.041599
O	     -1.04661      1.03175      4.86786        -0.003435      0.002428     -0.048612
O	     -5.23025      5.16919      0.91960         0.002579     -0.000914     -0.136611
O	     -5.23072      5.16911      5.04512         0.004597     -0.000216      0.137600
O	     -3.13803      3.10583      1.09650         0.001046     -0.003615      0.043533
O	     -3.13830      3.10562      4.86697         0.001706     -0.002070     -0.040517
