# total energy = -201.28467046 eV
 
CRYSTAL
PRIMVEC
0.003654 6.461521 6.173162 
6.127297 -0.060047 6.234326 
4.067714 4.330805 -0.021367 
PRIMCOORD
36 1
Li	      6.13484      6.42299     12.37363        -0.044470     -0.007200      0.004444
Li	      6.15540     10.60568      8.38820        -0.042365     -0.030270      0.087324
Li	      4.19633      8.52757      8.40085        -0.007066      0.000825      0.022750
Li	      4.06331      0.12807      4.06947        -0.169669      0.098870      0.046498
Li	      6.07245      2.23559      4.05841        -0.069967      0.178444     -0.012309
Li	      6.13471      6.30168      4.17981         0.096612     -0.175822     -0.031735
Li	      4.15716      4.20279      4.18793         0.138676     -0.108002     -0.074889
Li	      6.09730      4.26178     10.30600         0.021513      0.034277     -0.046468
Li	      6.07531      8.52550      6.28136        -0.028046     -0.051490     -0.064184
V	      8.24331      8.61249     12.32472        -0.099184      0.388624      0.140836
V	      2.18237      4.21336      2.14646        -0.017472     -0.201327     -0.110041
V	      8.09023      6.45917     10.36294        -0.193028     -0.218470     -0.200638
Cu	      6.12252      2.12784      8.31507         0.068611     -0.041307      0.129311
Cu	      4.08736      6.39560      6.19447        -0.050180      0.048389     -0.090014
Cu	      4.05994      4.43651      8.24980         0.042076      0.067659     -0.015074
Ni	      4.09038      2.14594      6.12818        -0.006477      0.135616     -0.703321
Ni	      6.11439      4.31764      6.12979         0.052754     -0.024801     -0.035999
Ni	      6.09597      6.50898      8.22389         0.003554      0.081422      0.081779
O	      4.08093      6.49367      8.17638        -0.109763     -0.066934      0.011024
O	      6.22981      8.52000      8.24579        -0.024326      0.225175     -0.054588
O	      1.93927      2.37105      2.01952         0.030046      0.045241      0.005788
O	      3.91315      4.20381      2.04717         0.014293      0.012251      0.007603
O	      4.08402      2.12512      4.21542         0.028482     -0.096333      0.112306
O	      6.13913      4.28732      4.18047        -0.038227     -0.025130     -0.136576
O	      6.23797      2.14659      6.33050         0.015990     -0.092105     -0.047893
O	      8.15750      4.21613      6.34990         0.113220     -0.410552      0.220357
O	      1.98432      4.40524      3.92079         0.017672      0.102731      0.123172
O	      3.89966      6.44885      4.05766         0.082232      0.035682      0.014300
O	      4.09152      4.20634      6.25999        -0.143150      0.117079      0.183220
O	      6.06472      6.42692      6.18611        -0.030889      0.059286     -0.163607
O	      6.14627      4.44257      8.19041        -0.083191     -0.065635      0.071699
O	      8.21504      6.19452      8.23721         0.090150     -0.076303      0.209878
O	      2.05807      6.61389      6.07689         0.050413      0.115623     -0.135569
O	      3.88006      8.68100      6.16639         0.108361      0.129091     -0.022444
O	      6.28911      6.37363     10.28478         0.127169      0.019818      0.179568
O	      8.14883      8.44038     10.35765         0.055647     -0.204421      0.293490
