# total energy = -204.60329435 eV
 
CRYSTAL
PRIMVEC
0.005195 6.245777 6.238325 
6.337636 0.040569 6.201191 
4.240813 4.155124 0.012182 
PRIMCOORD
36 1
Li	      8.40801      2.11448      6.17800         0.058261      0.044411     -0.018815
Li	      4.26762      2.09731      2.10681        -0.007815     -0.053484      0.045282
Li	      8.42416      4.20484      4.17279         0.047463     -0.027051      0.023841
Li	      8.50284      4.23936      8.25066         0.008005     -0.004870      0.018650
Li	      4.33377      4.21867      4.16591        -0.040004     -0.076090     -0.008749
Li	      6.35659      4.18510     10.28788        -0.008753      0.023721      0.002521
Li	      2.12709      6.21573      4.16755        -0.027000      0.000319      0.019418
Li	      6.35263      8.34153      6.28782        -0.068021      0.004239      0.001892
Li	      6.32730      6.26326      8.33884        -0.011376     -0.000252      0.036664
V	      4.26892     10.21682      6.16140         0.016139     -0.159804     -0.119746
V	      2.17178      2.29865      4.12093        -0.001860     -0.080436     -0.272092
V	      8.46882      8.28792      8.37289        -0.187175      0.057810      0.351783
Cu	      6.35310     10.38950      8.29224         0.044462      0.088288     -0.054638
Cu	      6.33015      2.14529      4.19441         0.030260     -0.217484     -0.051734
Cu	      6.36802      4.17493      6.20164         0.049324      0.165756      0.001482
Cu	      4.17557      6.20795      6.18170         0.024601      0.141217     -0.072147
Ni	      4.23825      6.22553      2.11836         0.042389      0.001427      0.028701
Ni	      8.45906      6.26040      6.23771        -0.022061     -0.031956     -0.036997
O	      4.12525      6.11839      8.13945        -0.009051      0.136431      0.052832
O	      2.06657      2.06353      2.28373        -0.006630      0.194374      0.074974
O	      4.36734      4.20283      1.92266         0.010760     -0.013686      0.058699
O	      3.97758      2.07418      4.15345        -0.015245      0.032491     -0.048110
O	      6.36130      4.13358      4.26227        -0.026417     -0.003614     -0.139534
O	      6.31982      2.14778      6.19802        -0.017901      0.007043      0.101219
O	      8.75879      4.24768      6.28327        -0.012195     -0.083200      0.048261
O	      2.11568      4.03844      4.12468         0.017676      0.349799      0.020104
O	      4.42432      6.23015      4.22307        -0.044079     -0.083207      0.010889
O	      4.05710      4.12852      6.41635        -0.025189      0.053848     -0.106764
O	      6.36030      6.18471      6.06033         0.101900     -0.023753      0.070549
O	      6.17048      4.19814      8.19169         0.049215      0.065070      0.003398
O	      8.48260      6.39614      8.31147         0.003237     -0.172497     -0.000317
O	      1.90517      6.29822      6.15025        -0.059139      0.042323      0.175058
O	      4.24256      8.45868      6.24256         0.027938     -0.110208     -0.006700
O	      6.48980      8.31127      8.44955         0.098126     -0.217848     -0.080786
O	      6.33050      6.37364     10.52828         0.008165     -0.030534     -0.067506
O	      8.61356      8.39532     10.14405        -0.048012     -0.018593     -0.061579
