# total energy = -201.96806987 eV
 
CRYSTAL
PRIMVEC
-0.083187 6.077755 6.262280 
6.657427 0.013855 6.162448 
4.466405 4.015075 -0.019663 
PRIMCOORD
36 1
Li	      0.13621      6.05811      6.17229         0.059029      0.041375      0.035735
Li	      2.45712      6.03826      8.23330        -0.049391      0.129029     -0.112961
Li	      4.68933      6.05890     10.27291         0.067123     -0.097523      0.112965
Li	      6.54008      2.09072      8.20988        -0.020084     -0.034714     -0.026548
Li	      8.57731      4.07237      8.27201        -0.018604      0.000965     -0.037310
Li	      6.48856      4.20576     10.37273        -0.048633     -0.050061      0.046310
Li	      8.58999      6.14363     10.46953         0.006773      0.062886      0.044520
Li	      4.25929      6.16172      6.31185        -0.052706      0.057393     -0.080222
Li	      6.49559      6.07127      8.42144         0.064768     -0.038167     -0.003905
V	      2.07606      2.08107      3.96078         0.205901      0.165626      0.004801
V	      4.42842      4.00534      4.04219         0.563758     -0.035110     -0.356916
V	      8.84972      5.83747      6.27691         0.115575     -0.102938      0.008684
Cu	      2.28933      8.07427      6.25846         0.040787      0.545290      0.452388
Cu	      4.51260      8.02469      8.27379        -0.111296     -0.082302      0.133438
Cu	      6.76584      8.04267     10.31555         0.102929      0.370230     -0.227092
Cu	      6.50025      4.04689      6.23018         0.080280     -0.095119      0.095803
Cu	      6.62474      8.14235      6.32267         0.035576      0.224714     -0.282397
Cu	      4.48079      4.15742      8.33469        -0.181073     -0.117191      0.324570
O	      4.43862      6.10652      8.29892         0.257271      0.023815     -0.119729
O	      6.94409      8.12171      8.28035         0.368664     -0.134494      0.620214
O	      6.65875      6.17010     10.37709        -0.080764     -0.146135     -0.172891
O	      8.92972      8.09904     10.56405         0.047033      0.112727     -0.630211
O	      2.09264      1.98494      2.18952        -0.089057     -0.006176     -0.063088
O	      4.35472      3.94169      2.26102        -0.064074      0.312910      0.451622
O	      4.10947      1.97886      4.09357         0.116308      0.170019     -0.093705
O	      6.41246      4.04791      4.19262        -0.452307     -0.599037     -0.021335
O	      6.18184      2.10386      6.06358         0.061539     -0.089873     -0.186744
O	      8.90320      4.06803      6.22464         0.023837     -0.205369     -0.036174
O	      2.23883      3.88954      4.10196         0.062540      0.294521     -0.117874
O	      4.71816      5.97491      4.17149        -0.611605     -0.190757      0.024662
O	      4.13010      3.89904      5.93903        -0.124112      0.024462     -0.173956
O	      6.88752      5.94526      5.97698        -0.144312      0.124359     -0.000397
O	      6.44757      4.04749      8.15910        -0.138542      0.164699      0.044624
O	      8.83451      6.08006      8.01031        -0.043025     -0.026444      0.209639
O	      2.21535      6.23151      6.25846         0.019639     -0.623870      0.055234
O	      4.71472      8.12638      6.37576        -0.069745     -0.149739      0.078244
