# total energy = -203.86133227 eV
 
CRYSTAL
PRIMVEC
0.026211 6.248191 6.225345 
6.299542 -0.013547 6.264555 
4.181719 4.174173 0.009192 
PRIMCOORD
36 1
Li	      0.02542      0.04998      0.03135         0.028448      0.031004      0.013921
Li	      6.32998     10.33795      8.40681        -0.037623      0.046281     -0.015353
Li	      4.26934      2.08414      2.19654        -0.016245      0.017887     -0.076827
Li	      8.37667      4.16291      8.34233        -0.002780     -0.026030     -0.008726
Li	      6.42684      6.20346      4.27943         0.012637      0.003284     -0.026677
Li	      4.27527      4.06570      4.22277         0.007652      0.013866     -0.052665
Li	      4.08733      2.20680      6.09401        -0.011145      0.030464     -0.003509
Li	      6.27062      4.13096     10.34113        -0.020532     -0.029643     -0.010188
Li	      6.40139      8.21732      6.35616         0.000453     -0.013494     -0.006482
V	      8.51542      2.23793      6.27989        -0.052659     -0.031811      0.091161
V	      4.17865      6.17504      2.07202         0.008755     -0.004997      0.026980
V	      2.04952      6.03648      4.22888         0.051402     -0.021292     -0.032394
Ni	      4.13251      0.07898      4.09049         0.080141     -0.053364      0.068060
Ni	      6.22287      2.13286      4.15117         0.013403     -0.027998      0.063301
Ni	      4.25181      6.20428      6.24127        -0.085363      0.093893     -0.068823
Ni	      6.23748      4.18876      6.21804         0.082340     -0.042602      0.033176
Ni	      4.18011      4.17976      8.28975         0.026740     -0.094023      0.092965
Ni	      6.29830      6.26081      8.26521         0.104171     -0.075115      0.084255
O	      1.99912      2.09432      1.86122         0.017674     -0.006486      0.040003
O	      4.16001      4.40269      2.07438         0.007725     -0.060108     -0.002327
O	      4.24353      2.03779      4.16454        -0.119180      0.112773     -0.023917
O	      6.31935      4.14737      4.22206        -0.044338      0.096172     -0.099301
O	      6.45054      2.07330      6.31793        -0.013753     -0.008904      0.006378
O	      8.42299      4.01949      6.21019         0.036896      0.065840      0.081818
O	      2.06159      4.31640      4.19299        -0.025358     -0.053862      0.021165
O	      3.97326      6.30674      4.08967        -0.023192     -0.049554     -0.005930
O	      4.22560      4.19476      6.27472        -0.115365     -0.123985     -0.096385
O	      6.26680      6.21033      6.26822         0.112177      0.126899     -0.100238
O	      6.28301      4.01281      8.30135         0.042136     -0.002388      0.042920
O	      8.44541      6.27656      8.52741         0.007479     -0.086192      0.008794
O	      2.13534      6.35468      6.04394        -0.090630      0.015188      0.043419
O	      3.99591      8.30468      6.24912         0.115012      0.057171     -0.008665
O	      4.27260      6.18282      8.32269        -0.092086      0.141397     -0.038588
O	      6.35564      8.29802      8.36076        -0.064046      0.062143     -0.095935
O	      6.50234      6.26090     10.37092        -0.004947     -0.070142      0.071539
O	      8.34865      8.32748     10.56903         0.064001     -0.032272     -0.016923
