# total energy = -195.10336524 eV
 
CRYSTAL
PRIMVEC
-0.009594 6.203843 6.181793 
6.168368 0.010115 6.162047 
4.136862 4.147424 -0.017827 
PRIMCOORD
36 1
Li	      4.08340      4.06825      0.02982         0.034404     -0.094767     -0.009185
Li	      2.12457      2.13987      0.02248         0.012181     -0.056248      0.033458
Li	      2.07152      6.27412      8.18647         0.065016      0.018527     -0.043352
Li	      4.07635      8.26172      8.10740         0.030273     -0.034277      0.063724
Li	      8.21041      4.19402      4.17522         0.011356      0.048197     -0.161560
Li	      8.24246      4.07177      8.08241         0.015816     -0.011430      0.067800
Li	      8.28415      6.09529      6.13117        -0.000915      0.007592      0.006092
Li	      4.11009      8.30760      4.24478        -0.003170      0.044420      0.013042
Li	      6.08144      8.34085      6.18597        -0.039543      0.031434      0.046176
Ti	      4.09459      4.05354      3.97882        -0.217565     -0.292095     -0.363835
Fe	      6.14623      6.22687      8.23988         0.121184      0.022303      0.061417
Co	      2.08158      6.21590      4.15032        -0.153936      0.205282      0.004471
Cu	      6.24873      4.15028      6.15467        -0.177119      0.132618      0.036194
Ni	      6.19762      8.25474     10.32606        -0.113468     -0.057105     -0.010280
Ni	      6.18138      2.08550      8.18256        -0.106182      0.053662      0.053245
Ni	      2.04614      2.10667      4.10390         0.031443      0.027728      0.070183
Ni	      4.10612      6.26078      6.18264        -0.055588      0.161179     -0.019775
Ni	      4.09744      4.15611      8.22063        -0.089024      0.003347      0.071421
O	      4.11672      8.11222      6.17914         0.002018      0.306107     -0.025282
O	      1.92280      2.08009      2.15537         0.159428     -0.015595     -0.322253
O	      4.16044      4.18458      2.11414        -0.015399     -0.225381      0.277938
O	      4.09270      2.18354      4.11793         0.091036      0.342086      0.035014
O	      6.10596      4.16454      4.16060        -0.026447     -0.000226      0.039531
O	      6.13805      2.19021      6.20296         0.040133     -0.031813     -0.108295
O	      8.17289      4.15859      6.11567        -0.235918     -0.026964      0.008008
O	      2.16342      4.24877      4.12649         0.226249      0.214943      0.001425
O	      4.05355      6.18553      4.05204        -0.187788     -0.070390      0.027509
O	      4.18478      4.33261      6.10738         0.331984     -0.282280     -0.104421
O	      6.11300      6.19027      6.16793         0.194115     -0.055738     -0.076409
O	      6.14235      4.21590      8.14509         0.090745     -0.241809     -0.031811
O	      8.24764      6.22987      8.36072         0.065653     -0.072033      0.065735
O	      2.16932      6.20788      5.98028        -0.221975     -0.064591     -0.133901
O	      4.20047      6.17870      8.23438        -0.281162      0.068564      0.165049
O	      6.22672      8.15404      8.27164         0.008061      0.378920     -0.084827
O	      6.32552      6.20339     10.25507         0.206666     -0.133784      0.282025
O	      8.20094      8.08383     10.24530         0.187440     -0.300383      0.065730
