# total energy = -195.30611743 eV
 
CRYSTAL
PRIMVEC
-0.002203 6.276714 6.243566 
6.140613 -0.003180 6.244385 
4.089091 4.180306 0.002727 
PRIMCOORD
36 1
Li	      4.14227     10.35994      6.23539         0.010894     -0.062102      0.009184
Li	      6.13255      2.21061      8.30805         0.011424     -0.010846     -0.045877
Li	      8.05924      4.19529      8.32789         0.010368      0.039715     -0.006900
Li	      2.03710      2.11578      4.16675        -0.040739      0.012475      0.013128
Li	      6.16551      4.18130     10.35909        -0.017609     -0.038731      0.013288
Li	      6.04182      8.38065      6.30099        -0.052009      0.046554      0.102125
Li	      4.11615      6.35847      6.28935         0.058747     -0.010026     -0.025344
Li	      4.20083      4.18132      8.32966        -0.081945     -0.079224     -0.028230
Li	      6.17297      6.12586      8.32855         0.085611     -0.011075     -0.074275
Ti	      3.98697      4.33186      4.14539        -0.277370      0.375899      0.267103
Fe	      8.16846      6.26605      6.31693         0.137463      0.009987     -0.307580
Co	      2.04470      6.28030      8.31384        -0.051574     -0.138192     -0.047723
Cu	      4.13680      6.21392     10.38771         0.047726     -0.105665      0.114221
Cu	      6.15440      4.19972      6.30594        -0.075950      0.032778     -0.065190
Cu	      8.14287      6.28176     10.34068         0.057573     -0.022767     -0.072828
Ni	      2.06702      8.31870      6.26959        -0.047740      0.057484      0.044322
Ni	      4.08090      2.08103      2.08731         0.131924     -0.062740     -0.154789
Ni	      6.14897      8.33923     10.36980        -0.053287     -0.053372      0.012604
O	      6.21368      6.28831     10.38728        -0.119483     -0.138169     -0.022147
O	      8.17318      8.21539     10.46111         0.161643      0.043309     -0.173224
O	      2.17129      1.93877      2.08284        -0.666696     -0.005900      0.280158
O	      4.22667      4.19179      2.19199         0.007210     -0.080101      0.084674
O	      4.09292      2.18357      4.15752        -0.182838      0.088573      0.298919
O	      6.08407      4.16547      4.04615        -0.013418      0.108059     -0.027282
O	      6.09140      2.17521      6.18499         0.096126     -0.037177      0.080280
O	      8.14660      4.16950      6.10101         0.120723      0.004097     -0.157619
O	      2.09976      4.28009      4.13592         0.309908      0.036336     -0.025427
O	      3.99537      6.21633      4.18912         0.013453     -0.286411     -0.044108
O	      4.16858      4.12192      6.11025        -0.099193      0.198598     -0.199959
O	      6.25650      6.18363      6.22497        -0.337776      0.000111     -0.044966
O	      6.15217      4.16120      8.23876         0.007276      0.032029      0.012435
O	      8.19793      6.26112      8.12296        -0.002082     -0.032755      0.624255
O	      2.04490      6.31556      6.50083         0.001111     -0.182160      0.097950
O	      4.04427      8.36253      6.43419         0.278204     -0.015882     -0.529275
O	      3.94610      6.26468      8.45992        -0.020416      0.134083      0.042694
O	      5.99268      8.53207      8.34691         0.592741      0.153206     -0.044595
