# total energy = -196.70221653 eV
 
CRYSTAL
PRIMVEC
0.011069 6.153849 6.370634 
6.109157 0.014002 6.367456 
4.067252 4.095123 0.014798 
PRIMCOORD
36 1
Li	      4.06265      4.08988      0.04546         0.019360      0.021971      0.010061
Li	      4.11953      6.18179     10.50987        -0.015309      0.018853      0.039785
Li	      6.14196      8.10282     10.58263        -0.013669     -0.073766      0.021912
Li	      4.08177      6.07144      2.20218        -0.041329      0.017187      0.009213
Li	      4.05343      4.09821      4.24865        -0.025389      0.028802      0.045445
Li	      8.14579      6.13796     10.57542         0.072644     -0.023032     -0.029304
Li	      6.14271      8.24388      6.48722         0.023058      0.026897      0.063919
Li	      4.06037      6.14427      6.43014        -0.010635     -0.025487      0.001148
Li	      8.08028      8.26700      8.53397         0.031246     -0.035568     -0.029994
Ti	      2.10581      8.08293      6.27180         0.137319     -0.230271     -0.054057
Fe	      6.01767      4.10855      6.34567         0.022091     -0.052051      0.050168
Co	      8.14286      6.15615      6.38806         0.087912      0.136615     -0.039978
Cu	      6.09715      4.08096      2.19815         0.017918     -0.025241     -0.038205
Cu	      2.07617      4.10090      2.09390         0.060752      0.017716      0.080447
Cu	      2.02154      2.10920      4.27787        -0.029943      0.047424      0.104564
Cu	      6.11054      6.17600      8.54110        -0.024836      0.126081     -0.049975
Ni	      4.10517      8.21249      8.50049        -0.014966      0.010426      0.044548
Ni	      6.13101      4.11365     10.58426         0.040514     -0.071343      0.014130
O	      4.06545      6.20230      8.51299         0.031953     -0.124535      0.039648
O	      6.09517      8.21271      8.61549         0.113659     -0.158252     -0.017350
O	      6.15254      5.99565     10.48293        -0.028615      0.243793     -0.039380
O	      2.04004      2.08397      1.93006        -0.112309      0.043545     -0.052570
O	      4.07659      4.06806      2.17854        -0.033126      0.119260     -0.018315
O	      3.89201      2.07199      4.43958         0.069728     -0.019477      0.003204
O	      6.07230      4.32304      4.28437         0.049046     -0.060480     -0.167923
O	      6.09451      2.12458      6.23556         0.036044     -0.109358      0.016032
O	      8.09352      4.15088      6.44934         0.078508     -0.050789     -0.172091
O	      1.95895      4.00484      4.10775         0.078286     -0.026094     -0.010833
O	      4.20652      6.30521      4.26027        -0.076146     -0.156352     -0.016357
O	      4.10785      3.98202      6.38215        -0.131592     -0.051537      0.012635
O	      6.22544      6.14219      6.57379        -0.015297      0.101195     -0.006795
O	      6.17221      4.16458      8.42716        -0.105240     -0.037921     -0.022418
O	      8.15898      6.08987      8.32794         0.089356      0.103067     -0.028822
O	      2.02862      6.22143      6.47779         0.003427      0.263034      0.005705
O	      3.98834      8.22860      6.34927        -0.238995     -0.004399      0.035172
O	      8.25195      8.16605     10.72560        -0.145424      0.010086      0.196628
