# total energy = -136.55760858 eV
 
CRYSTAL
PRIMVEC
2.078725 2.078695 -0.000029 
-4.179192 4.179139 0.000007 
-0.000077 -0.000125 11.760087 
PRIMCOORD
24 1
Li	     -1.07906      3.15642      0.98076         0.001996      0.000047      0.000829
Li	     -1.05221      3.13096      4.90613         0.007039     -0.002470     -0.011653
Li	     -1.04522      3.12846      8.81527        -0.014841      0.006012      0.010558
Li	     -3.11506      5.19150      0.98057         0.001580      0.001673      0.000804
Li	     -3.13557      5.21786      4.90598        -0.009547      0.003923     -0.015112
Li	      1.03721      1.04481      8.81486         0.008573     -0.013349      0.015233
Mn	     -1.04505      1.04552      2.95074         0.003005     -0.002625      0.009394
Mn	     -1.04553      1.04606     10.77218         0.004255     -0.003027     -0.016235
Mn	     -3.13332      3.13659      6.86170         0.009147     -0.011666     -0.001309
Ni	     -1.04316      1.04631      6.85919        -0.006907      0.004432      0.005461
Ni	     -3.13472      3.13473      2.94902        -0.001124      0.002351     -0.006435
Ni	     -3.13483      3.13567     10.77128        -0.001466      0.001061      0.010891
O	     -0.96936      3.04822      2.93685         0.123182     -0.121842      0.011698
O	     -1.07970      3.16164      6.86089        -0.139804      0.137116     -0.000486
O	     -0.96937      3.04845     10.78491         0.123221     -0.121282     -0.011628
O	      0.95788      1.12108      2.93659        -0.122902      0.124307      0.012219
O	     -3.10719      5.18928      6.86056         0.132570     -0.135197      0.000192
O	      0.95696      1.12198     10.78482        -0.120512      0.123724     -0.013162
O	     -1.05798      5.21288      0.98019         0.005397      0.001747     -0.000700
O	     -3.13293      3.13535      4.95030        -0.001689      0.003698      0.167511
O	     -3.13291      3.13702      8.77158        -0.002873     -0.000362     -0.169240
O	     -1.04563      1.04562      0.98103         0.000039      0.000768     -0.002261
O	     -1.04396      1.04556      4.82713        -0.000582     -0.000152     -0.158759
O	     -1.04476      1.04626      8.89386         0.002243      0.001113      0.162187
