# total energy = -195.65523612 eV
 
CRYSTAL
PRIMVEC
-0.024703 6.208906 6.217044 
6.167233 -0.009445 6.201798 
4.123775 4.141332 -0.018436 
PRIMCOORD
36 1
Li	      8.21806      8.26123     12.34759        -0.019052     -0.002218      0.006425
Li	      6.26027      8.21039     10.30064         0.027638     -0.014924      0.050232
Li	     10.20049      6.27239      8.24843        -0.024062     -0.009117      0.001417
Li	      8.12459      4.24956      8.30097         0.043114     -0.023990      0.026312
Li	      8.22628      6.23807      6.32309         0.039981      0.025153     -0.060809
Li	      8.21303      6.27822     10.24097        -0.005765      0.045925     -0.009492
Li	      6.10394      8.25195      6.22963         0.012609      0.045858     -0.041493
Li	      4.10789      6.23023      6.17915        -0.042086     -0.039929      0.014158
Li	      8.24456      8.19218      8.26272        -0.011233      0.013263     -0.001941
Ti	      0.09756      0.07913      0.03733         0.339672      0.245191     -0.069944
Fe	      4.02618      4.17570      4.17841         0.027767     -0.080763      0.023676
Co	      6.21659      4.09064      6.24602        -0.220002     -0.038857     -0.622410
Cu	      2.08510      6.15080      8.27552         0.048406     -0.123290     -0.225690
Cu	      4.09025      8.26879      8.24895        -0.066528      0.071896     -0.274855
Cu	      8.22535     10.29180     10.36817         0.076558      0.012820      0.055422
Cu	      6.17161      6.20254      4.12998        -0.113299      0.146397      0.234464
Cu	      6.19802      6.22674      8.17032        -0.126420      0.045497      0.203751
Ni	      4.08419      8.23180      4.10918         0.019178      0.099442      0.136243
O	      1.96585      6.20550      6.29227        -0.378219     -0.011151     -0.127529
O	      4.18642      6.28672      8.31788         0.347990     -0.059386     -0.006052
O	      6.08946      8.23648      8.25472         0.007836     -0.109895     -0.034141
O	      8.26242      8.34918     10.31398        -0.062673     -0.113092     -0.055244
O	      2.12578      1.94063      2.17329        -0.027194      0.068633      0.054043
O	      4.09560      4.07454      2.04879        -0.146460      0.019963      0.042465
O	      4.04695      2.09769      4.04160         0.002227      0.053539      0.081162
O	      6.21247      4.17545      4.06939        -0.153237     -0.145482      0.134374
O	      6.14348      1.94341      6.23071         0.043026      0.043754      0.101902
O	      8.08552      4.10597      6.14003         0.052633      0.052035      0.165534
O	      2.06784      4.04236      4.18137        -0.016968      0.099538     -0.009773
O	      4.15926      6.16151      4.09289         0.062683     -0.009805     -0.041951
O	      4.35836      4.11601      6.10472         0.032659      0.056044      0.177650
O	      6.18799      6.17619      6.10148        -0.004365     -0.273201     -0.307982
O	      6.14734      4.27321      8.19829         0.023357      0.036064      0.241384
O	      8.07501      6.21992      8.29436         0.028183      0.041112     -0.030486
O	      4.04408      8.43209      6.24781         0.062276     -0.201408     -0.116664
O	      6.07295      6.15696     10.49645         0.119768      0.034381      0.285839
