# total energy = -196.31431665 eV
 
CRYSTAL
PRIMVEC
0.002296 6.266923 6.305149 
6.117256 0.024384 6.283326 
4.096066 4.181346 -0.001764 
PRIMCOORD
36 1
Li	      8.11829      2.20016      6.34630         0.004912      0.011773      0.065125
Li	      2.03708      0.09958      2.13228         0.060912     -0.052147     -0.022407
Li	      4.10076      2.05587      2.15507        -0.018421     -0.007587     -0.053641
Li	      8.16655     10.42973     10.51449         0.030797     -0.052167     -0.022923
Li	      8.13804      4.13014      8.31264        -0.043994     -0.034226     -0.087614
Li	      2.13355      2.14420      4.10178        -0.056804      0.039855     -0.031622
Li	      8.17647      6.19823      6.23268        -0.034731     -0.075325      0.026006
Li	      6.11157      4.23059     10.50667        -0.035736      0.005031      0.029687
Li	      4.08155      4.21187      8.39399         0.002795      0.056450     -0.024326
Ti	      8.14046      6.37732     10.42156         0.005193      0.308577     -0.377317
Fe	      4.09951      6.37097      6.38426         0.036341      0.158269      0.083318
Co	      0.06434      2.06686      2.09759         0.044393      0.214430      0.043421
Cu	      4.00103      4.12513      0.08374        -0.294090     -0.250597      0.082353
Cu	      6.09193      2.13830      4.15368         0.093243     -0.106224     -0.245917
Cu	      4.09771      4.18537      4.17911         0.128156      0.074188     -0.291497
Cu	      6.17321      4.13676      6.25906        -0.273000      0.134929      0.142165
Cu	      2.07074      4.20023      6.29896         0.060860     -0.043372      0.275023
Cu	      6.11595      6.29930      8.37174         0.087067     -0.375416      0.349856
O	      4.14104      8.41253      6.30869        -0.373411     -0.070090     -0.077432
O	      4.15386      6.25838      8.33236        -0.168390     -0.020358      0.004933
O	      6.16083      8.27663      8.26385         0.080929      0.690284     -0.211185
O	      6.15746      6.30734     10.41172        -0.027217     -0.034235      0.097981
O	      8.10114      8.25751     10.50605        -0.108181     -0.184008     -0.024127
O	      1.86541      2.06974      2.13565        -0.036564      0.001655      0.011966
O	      4.08522      4.36474      2.17991        -0.037575     -0.079104     -0.019858
O	      4.16130      2.22907      4.15333         0.180782     -0.077517      0.009403
O	      6.10549      4.12251      4.34430        -0.053241     -0.006092     -0.029071
O	      6.09197      1.87332      6.51266        -0.012140      0.155615     -0.117234
O	      8.05925      4.18745      6.25959         0.573337     -0.038398     -0.067123
O	      2.10212      4.29264      4.27437        -0.110443     -0.069225      0.447007
O	      4.03735      6.29554      4.14710        -0.026790      0.069709     -0.002978
O	      4.16421      4.30123      6.19131         0.098516     -0.006328      0.068445
O	      6.10361      6.39275      6.38312         0.164631     -0.042578     -0.435082
O	      6.11512      4.00261      8.17631        -0.069902     -0.195392      0.158022
O	      8.19720      6.26139      8.50342         0.134186     -0.039944      0.315707
O	      2.12838      6.22028      6.20714        -0.006415     -0.060433     -0.069064
