# total energy = -194.63655284 eV
 
CRYSTAL
PRIMVEC
0.016822 6.129052 6.327641 
6.160370 0.018547 6.325663 
4.111444 4.089257 0.008064 
PRIMCOORD
36 1
Li	      2.10819      8.11408      6.27158         0.012432      0.000371     -0.076089
Li	      4.14183      8.16283      8.34504        -0.058314     -0.005849      0.066845
Li	     10.25426      6.20144      8.48123         0.034031      0.000163      0.096949
Li	      4.11070      4.13718      4.32691         0.002651      0.024782      0.005035
Li	      4.11156      2.11949      6.34014        -0.030820      0.014675     -0.068084
Li	      4.11770      8.14990      4.29761        -0.000030     -0.085705     -0.003766
Li	      2.12458      6.14123      4.26618         0.057091      0.126540     -0.011281
Li	      2.05101      4.12252      6.25329         0.019194     -0.051966     -0.049645
Li	      4.14012      4.06451      8.41161         0.025144     -0.026222      0.066974
Ti	      8.27388      4.18887      8.47028         0.035463      0.131149      0.045349
Fe	      8.21090     10.16877     10.51524         0.083244      0.294795      0.089769
Co	      1.98128      2.09538      4.18530         0.759506      0.028877      0.180485
Ni	      0.04443      6.07627      6.29781         0.055336      0.035563     -0.116279
Ni	      2.03276      6.13254      8.38276        -0.021957     -0.009932      0.087187
Ni	      6.13437      2.05890      4.22276         0.011915     -0.132255      0.081727
Ni	      6.15034      4.06810      6.35698        -0.039989     -0.031133     -0.072330
Ni	      4.10656      6.15618      6.34307         0.032125      0.128405     -0.290347
Ni	      6.18687      6.17846      8.43546         0.010107      0.002926      0.054080
O	      2.02246      2.06084      2.25928        -0.046816      0.158776      0.377526
O	      4.05693      4.11152      1.95149        -0.221327     -0.009291      0.114094
O	      3.92646      1.85530      4.26601        -0.111997      0.205330     -0.023348
O	      6.17580      4.02196      4.19659        -0.161659      0.569132     -0.079093
O	      6.11429      2.07350      6.11589         0.017696     -0.012613      0.212718
O	      8.15628      4.05464      6.35081         0.003501     -0.010162      0.153621
O	      2.15232      4.06510      4.07139        -0.152765     -0.535864     -0.069217
O	      4.29442      6.14315      4.27286        -0.272760     -0.058688      0.056955
O	      4.22580      4.20347      6.34787        -0.141264     -0.069226      0.051399
O	      6.09389      6.09073      6.29831         0.008805      0.070904     -0.436783
O	      6.29467      4.15543      8.38013         0.143517      0.050526      0.021974
O	      8.21157      6.08557      8.46912        -0.011361     -0.389151      0.000560
O	      2.12945      6.10714      6.37287        -0.080085     -0.004509     -0.013505
O	      4.15384      8.10953      6.33515        -0.024340      0.059424      0.036373
O	      4.13876      6.13308      8.52974        -0.010097     -0.013123     -0.232051
O	      6.15090      8.17496      8.66297         0.010922      0.062937     -0.246785
O	      6.09535      6.24071     10.59498         0.108498     -0.116219     -0.031982
O	      8.22704      8.34580     10.54343        -0.045594     -0.403369      0.020964
