# total energy = -197.88873877 eV
 
CRYSTAL
PRIMVEC
0.027977 6.197609 6.132010 
6.188442 0.020167 6.139604 
4.139258 4.150411 -0.000101 
PRIMCOORD
36 1
Li	      8.23363      8.29764     12.20941         0.064094     -0.084320     -0.037856
Li	      6.13559      4.14861      2.02392        -0.036961     -0.018192     -0.000406
Li	      4.19971      8.29332      8.16805        -0.002354     -0.012814      0.006136
Li	      4.13272      4.16223      4.09618        -0.048189      0.043683      0.087945
Li	      4.19416      2.11549      6.13592        -0.146427      0.176634      0.009502
Li	      6.17003      4.04852      6.15546        -0.131737      0.059688     -0.016957
Li	     10.27328      8.29535     10.23118        -0.033046     -0.009194     -0.014799
Li	      2.13392      6.26639      4.10640         0.068032      0.013139     -0.001206
Li	      8.28856      8.29386      8.21717        -0.005521     -0.028687     -0.005206
Ti	      2.10666      2.01875      4.05467        -0.213925      0.127881      0.160805
Fe	      8.29240      4.19912      8.10853        -0.173052     -0.016518      0.571562
Co	      2.10596      4.13037      6.13563         0.254002      0.116795      0.020388
Co	      6.20702      6.22291      8.17143         0.281511     -0.434625      0.035420
Cu	      8.29576     10.31580     10.24097        -0.074729     -0.002959     -0.273568
Ni	      0.07021      6.18384      6.13838        -0.059109      0.340706      0.022794
Ni	      6.18410      2.13138      4.13069        -0.049608      0.068638     -0.288750
Ni	     10.28554      6.27068      8.17915        -0.061266      0.184290      0.227277
Ni	      4.10318      6.22877      6.13363         0.023398     -0.029254      0.002688
O	      8.21090      8.37355     10.22281         0.213907      0.011902      0.047557
O	      2.04726      2.14085      2.14295         0.041225      0.001300      0.058376
O	      4.05461      4.21149      2.03946         0.259482     -0.176432     -0.306140
O	      4.06172      2.01901      4.10058         0.019036     -0.067636      0.022456
O	      6.25412      4.21689      4.10812        -0.050392      0.084844      0.077811
O	      6.19511      2.00289      6.16859        -0.005425     -0.432055     -0.029163
O	      8.37375      4.11728      6.15961         0.317626     -0.058222     -0.213451
O	      2.11085      4.03284      4.18445         0.017217     -0.115214      0.057625
O	      4.27337      6.22455      4.08687         0.115255     -0.023995     -0.026968
O	      3.94384      4.23307      6.14621        -0.079820     -0.493409     -0.005621
O	      6.17066      6.32760      6.17534         0.233963      0.150129     -1.008976
O	      6.29107      4.27517      8.15492         0.016991     -0.338278     -0.255094
O	      8.15106      6.17264      8.22343         0.398513     -0.032414     -0.066592
O	      2.06862      6.05427      6.14737        -0.523989     -0.056055      0.015561
O	      4.36250      8.29890      6.12559        -0.026978      0.363221      0.065704
O	      4.34316      6.20369      8.15910        -0.464780      0.022569      0.154831
O	      6.23678      8.11219      8.07514        -0.035597      0.718478     -0.376996
O	      6.12644      6.28042     10.10147        -0.101344     -0.053626      1.283312
