# total energy = -198.27990101 eV
 
CRYSTAL
PRIMVEC
0.039260 6.131603 6.223274 
6.299324 0.056343 6.206525 
4.219754 4.096613 0.016983 
PRIMCOORD
36 1
Li	      4.26458     10.18141      6.29055         0.008450      0.003107     -0.022622
Li	      4.33866      8.22307      8.25423        -0.006301      0.018430      0.052379
Li	      6.33951      8.19821     10.25553        -0.022166     -0.049787      0.008531
Li	      2.20202      4.11240      2.10921         0.024970      0.016942      0.092256
Li	      4.19769      4.08995      4.10922        -0.062411     -0.014476      0.017278
Li	      8.41813      6.17965      6.23716        -0.052494      0.008443     -0.013305
Li	      0.05183      4.10688      4.18545         0.125645      0.029471     -0.038993
Li	      6.36488      8.19775      6.28752         0.096243     -0.061360     -0.172823
Li	      8.35439      8.19100      8.30066         0.006382     -0.023643     -0.059457
Ti	      6.18805      4.08713      6.26896        -0.404107      0.202333     -0.122101
Fe	      4.30005      6.17646     10.34065         0.062598      0.042013     -0.169518
Co	      4.20960      6.12443      2.10824        -0.072139     -0.147940      0.142198
Co	      2.10846      2.18873      4.14220         0.156601     -1.094574      0.233162
Cu	      2.19938      8.17911      6.21777        -0.273008      0.030464      0.291572
Cu	      6.35094      6.26844      8.29664        -0.000730     -0.133803     -0.043613
Ni	      2.13156      6.11522      4.16906        -0.085416     -0.172060     -0.067620
Ni	      6.31304     10.19372      8.29715        -0.059623      0.031720      0.188014
Ni	      4.22625      6.18995      6.25677         0.095588     -0.181610     -0.039866
O	      4.13920      8.14966      6.26140        -0.031092      0.191983      0.087740
O	      6.33578      8.22134      8.26878        -0.013745     -0.086395     -0.008455
O	      1.91608      2.00927      2.05647         0.086903      0.207083     -0.139531
O	      4.27567      4.26054      2.07951        -0.061259      0.040627     -0.085043
O	      4.12355      1.91683      4.13706        -0.359450      0.678923      0.014472
O	      6.36988      4.24182      4.23200        -0.206370      0.218107     -0.098605
O	      6.32438      2.14971      6.34053         0.047864      0.000125     -0.043803
O	      8.35523      4.08677      6.06402         0.031467     -0.063302      0.441351
O	      2.14890      3.97673      4.18397        -0.060608      0.377668     -0.024456
O	      4.26426      6.14676      4.04137         0.465264      0.209478     -0.095334
O	      4.34217      4.14374      6.18335         0.406929     -0.118156      0.143507
O	      6.32393      6.10492      6.29660         0.076201     -0.035423     -0.006970
O	      6.38345      4.05855      8.17993        -0.012302     -0.001387     -0.107666
O	      8.64675      6.17690      8.41317        -0.023595      0.071763     -0.251900
O	      2.18807      6.20648      6.16614        -0.093158      0.089793      0.167761
O	      4.12734      6.11726      8.39594         0.167525     -0.042757     -0.343942
O	      6.33706      6.19573     10.23168         0.069097      0.022777      0.080916
O	      8.43883      8.32625     10.45894        -0.027752     -0.264579     -0.005511
