# total energy = -198.53891464 eV
 
CRYSTAL
PRIMVEC
-0.010867 6.187307 6.250861 
6.189040 0.039055 6.200222 
4.145276 4.110658 0.007092 
PRIMCOORD
36 1
Li	      8.27594      2.11721      6.20505        -0.145380      0.052856     -0.009648
Li	      6.17299      4.17606      2.20321        -0.018401      0.058381      0.168862
Li	      4.12929      0.14412      4.18372        -0.091301     -0.017870      0.003960
Li	      6.09865      2.06205      4.14575        -0.066205      0.135782      0.217108
Li	      2.18059      2.01236      4.13341         0.063625     -0.157429     -0.060028
Li	      4.13324      4.03169      4.13824         0.139062     -0.052702     -0.043495
Li	      4.15864      2.06473      5.97891         0.158235     -0.044102     -0.043586
Li	      4.16537      8.27466      4.25753        -0.059080     -0.002174     -0.111277
Li	      6.18422      6.19338      8.37729        -0.033198     -0.113036      0.043923
Ti	      8.12737      8.33208      8.37625         0.266624      0.250569      0.566723
Fe	      6.26291      4.13239      6.10913         0.044666     -0.719418      0.337449
Co	      8.25475      6.22773     10.37591        -0.143196      0.405972     -0.044377
Co	      4.09914      6.15755      6.20361         0.111693      0.380844      0.026318
Cu	      0.04200      2.04949      2.09392        -0.033491      0.003906      0.242687
Cu	      2.07600      4.11581      2.08667        -0.074271      0.081283     -0.065827
Cu	      6.18544      8.16942      6.18859         0.320170     -0.006719     -0.020312
Ni	      6.16936      6.25410     12.41023        -0.013224      0.297631     -0.020315
Ni	      4.17385      8.20624      8.38603        -0.487667      0.223749      0.180506
O	      4.24871      8.11856      6.32131        -0.235770     -0.039036     -0.046353
O	      6.38984      6.23515     10.43597         0.218687     -0.074665     -0.153986
O	      1.99970      2.15268      2.14784         0.394069     -0.110265     -0.019967
O	      4.07756      4.17593      1.99391         0.141983     -0.242879      0.213802
O	      4.12986      2.06636      4.07113        -0.003070      0.021976     -0.043081
O	      6.21651      4.08800      4.33010        -0.065158      0.158602     -0.948665
O	      6.17954      2.18549      6.28525         0.010559     -0.286538     -0.212528
O	      8.26650      4.18162      6.28871         0.096154     -0.047290      0.044214
O	      2.05847      4.33185      4.11523        -0.008856     -0.197943      0.265570
O	      3.94747      6.21180      4.26246        -0.023932     -0.102766     -0.906185
O	      4.04091      4.20597      6.29769         0.000359     -0.170110     -0.164264
O	      6.01016      6.03899      6.19136         0.120680      0.754018     -0.103466
O	      6.16058      4.09734      8.12465        -0.244855      0.241257      0.387603
O	      8.32211      6.24449      8.43380        -0.148813      0.036183      0.127459
O	      2.13465      6.21928      6.08897        -0.118082     -0.060644     -0.049412
O	      4.10839      6.11442      8.20006        -0.125468     -0.394583      0.783914
O	      6.27263      8.24365      8.29535         0.056790     -0.058677     -0.316162
O	      8.30695      8.19109     10.25547        -0.003938     -0.204163     -0.227163
