# total energy = -198.87339625 eV
 
CRYSTAL
PRIMVEC
-0.028838 6.185795 6.344173 
6.139676 0.026741 6.288550 
4.118771 4.112446 -0.007819 
PRIMCOORD
36 1
Li	      8.18146      4.13762      4.25551        -0.021399      0.039974      0.003367
Li	      6.09728      2.19153      8.42842         0.002781     -0.141476     -0.029200
Li	      8.07991      4.19812      8.40055         0.123171     -0.034490     -0.002598
Li	      4.04859      4.11007      4.20001         0.047993     -0.004299     -0.044014
Li	      8.15297      6.21956      6.31866         0.021252      0.014972      0.027703
Li	      6.19774      4.09370      6.44793         0.020408      0.080759      0.036522
Li	      6.17809      4.14257     10.38274        -0.030217      0.064804      0.061547
Li	      2.08386      4.09680      6.22381        -0.002879      0.055044     -0.063396
Li	      6.23186      6.08127      8.42906        -0.031324      0.073615      0.100830
Ti	      4.26463      6.12105      6.25136         0.161601     -0.478534      0.102874
Fe	      4.11036      2.04330      2.12772        -0.044760      0.266438      0.008494
Co	      6.10683      0.05338      6.25909         0.267233     -0.016531      0.017964
Co	      8.17551      8.29298     12.59527        -0.051859      0.034469     -0.056950
Cu	      6.13403      4.13816      2.08976        -0.041229     -0.045046     -0.190419
Cu	      6.13056      2.13509      4.23326        -0.138282      0.072902     -0.207029
Cu	      2.05709      2.12330      4.20463        -0.036617     -0.023867      0.156418
Cu	      2.02981      6.10946      4.18460        -0.034588     -0.105096      0.359832
Cu	      4.13610      4.11383      8.42696        -0.027133     -0.169302      0.126634
O	      8.18570      6.28101      8.53552         0.057298      0.084660     -0.191213
O	      6.10948      8.32570      8.56788         0.138399     -0.162581     -0.038437
O	      6.15592      6.25837     10.71288        -0.015783      0.032200      0.127934
O	      8.10676      8.18336     10.62643         0.182702      0.097589      0.113449
O	      2.08411      1.99735      1.89658        -0.109974      0.131623      0.047767
O	      4.16990      4.04482      1.86896        -0.128567      0.190510     -0.111069
O	      4.06280      2.09717      4.09393        -0.020455      0.016009      0.199724
O	      6.13640      4.22383      4.06210        -0.025952     -0.056769      0.236671
O	      6.28359      2.14259      6.18044        -0.180127     -1.113775      0.212751
O	      8.35999      3.99802      6.27062        -0.024511      0.125338      0.028512
O	      2.04201      4.10162      4.19589         0.013712     -0.007522     -0.033027
O	      4.08515      6.14133      4.34842        -0.030819      0.017898      0.009283
O	      4.03946      4.22776      6.44933         0.088102      0.222988     -0.327194
O	      6.07292      6.20466      6.37213        -0.176420     -0.006685     -0.130960
O	      6.04721      4.15216      8.44772         0.040019     -0.050628     -0.018310
O	      1.96144      6.28724      6.30845        -0.120917     -0.068173     -0.136653
O	      3.98660      8.11104      6.40816         0.033334      0.820414     -0.178766
O	      4.00572      6.18308      8.34399         0.095808      0.042566     -0.219040
