# total energy = -201.41203087 eV
 
CRYSTAL
PRIMVEC
0.035183 6.138995 6.142133 
6.319330 0.022849 6.154002 
4.231041 4.118572 -0.002635 
PRIMCOORD
36 1
Li	      4.27822     10.21444      6.12206         0.073922     -0.095649      0.034401
Li	      2.18391      6.10669      8.19112        -0.028233      0.206331     -0.126776
Li	      4.25571      6.13859     10.17243         0.002866     -0.064306      0.114098
Li	      8.38142      4.17527      8.13516        -0.022274     -0.042006     -0.129713
Li	      8.33143      6.18845      6.27129        -0.042759     -0.154732      0.083620
Li	      6.37748      4.21378     10.21485        -0.001576      0.014450      0.110079
Li	      6.38458      8.21380      6.25703        -0.127488      0.125262     -0.077008
Li	      4.25709      4.09816      8.19480         0.136423     -0.009515      0.084240
Li	      6.34897      6.19009      8.24089         0.025659     -0.116867     -0.053707
Ti	      4.09273      4.04027      4.07618        -0.328917      0.229738     -0.112632
Fe	      4.25507      6.15165      6.29447        -0.194658      0.531722     -0.159586
Co	      8.49328      8.24432     12.27582         0.198555     -0.411292     -0.109622
Co	      6.41331      8.17744     10.18220         0.595768     -0.316837     -0.812429
Co	      8.50160      6.21710     10.23583        -0.120694      0.158029      0.212093
Cu	      6.35001      4.12192      6.15169         0.634233     -0.030463      0.248289
Ni	      4.26826      8.20189      8.17502        -0.495952      0.054871     -0.073193
Ni	      6.31027      2.07838      8.16836         0.189023      0.037186     -0.127264
Ni	      6.29596      6.16524      4.07704        -0.066890      0.036592     -0.266632
O	      2.00932      2.03630      1.91774         0.015448      0.038477      0.537111
O	      4.23299      4.17452      2.14907         0.033407     -0.003631      0.165870
O	      4.10879      2.13084      4.07610         0.531374     -0.002214      0.192787
O	      6.20876      4.05378      4.18421        -0.122090      0.127026      0.017857
O	      6.52265      2.09129      6.00250        -0.439821      0.302150      0.085945
O	      8.42997      3.94445      6.08271        -0.470187      0.701812     -0.042130
O	      2.18355      4.18280      4.15247         0.248840     -0.020895     -0.065824
O	      4.21774      6.09723      4.12167        -0.217856     -0.049104      0.031513
O	      4.23493      4.15602      6.05814        -0.073661     -0.239882      0.044383
O	      6.30445      6.11907      6.10201        -0.158897     -0.095973      0.131927
O	      6.34452      4.01108      8.06670        -0.030278     -0.021375     -0.043195
O	      8.59288      6.19537      8.32234         0.006243      0.036357     -0.025786
O	      2.21847      6.28704      6.02759         0.030148     -0.419801     -0.065601
O	      4.09792      8.19498      6.19502         0.281139     -0.122307     -0.175427
O	      4.23746      6.17873      8.19321         0.006342     -0.123551      0.078449
O	      6.29951      8.22605      8.32487         0.318450      0.217508      0.652228
O	      6.59899      6.30873     10.23016         0.182078     -0.353745      0.188859
O	      8.54645      8.12513     10.37596        -0.567690     -0.123367     -0.547227
