# total energy = -201.06722565 eV
 
CRYSTAL
PRIMVEC
-0.013567 6.106771 6.137621 
6.192341 -0.027695 6.151986 
4.131492 4.084034 -0.021613 
PRIMCOORD
36 1
Li	      4.05497     10.08594      6.12173        -0.005932      0.077977      0.030464
Li	      8.30830      8.20567     12.23351        -0.022753     -0.029538      0.006703
Li	      6.16753      2.05163      8.19819         0.051458      0.063763      0.005096
Li	      8.25634      4.04443      8.16873        -0.095902     -0.007291      0.036717
Li	      4.08811      4.09013      4.12262         0.004746     -0.023247      0.019560
Li	      4.15822      8.11167      4.22409         0.041679     -0.026997     -0.093386
Li	      6.08527      8.10672      6.05370        -0.021648     -0.040055     -0.007651
Li	      4.16030      6.15642      6.09850         0.001407     -0.061823      0.014383
Li	      4.16937      4.00302      8.16305         0.078628     -0.031646      0.038983
Ti	      1.99247      6.08667      8.01976        -0.238697      0.052622     -0.362237
Fe	      2.19052      6.02778      4.05889        -0.104906      0.062030      0.026107
Co	      6.12577      6.15807      4.09184        -0.155759      0.188912      0.005719
Co	      6.16072      4.08148      6.15917        -0.026213      0.116271      0.118302
Co	      6.18427      6.08287      8.17177         0.141206     -0.120815     -0.127664
Cu	      4.10674      2.04955      2.00315        -0.139025      0.129057      0.050436
Cu	      6.23708      2.02306      4.14035         0.204033     -0.174167      0.031730
Ni	      8.27512     10.11990     10.23932         0.063820     -0.115739      0.023126
Ni	      4.13919      2.03450      6.17882        -0.013791      0.024761     -0.001552
O	      4.09751      8.14925      6.27109         0.000248      0.033890     -0.004164
O	      2.04360      1.91594      2.20568        -0.286453     -0.257654     -0.039373
O	      4.25963      4.04471      1.99822         0.268996     -0.176275      0.059173
O	      4.00031      2.00373      4.02273         0.029073      0.139818     -0.234695
O	      6.20630      4.19659      4.15075        -0.084415     -0.166344      0.016218
O	      6.15345      2.16027      6.08066         0.181968      0.108430      0.046280
O	      8.10271      4.12859      6.10723        -0.175272     -0.208132      0.046714
O	      2.04489      4.03484      4.10585         0.037017     -0.074304      0.022580
O	      4.13855      6.14712      4.04874         0.086484     -0.032291      0.030631
O	      4.32030      4.00524      6.12972         0.246666      0.293112     -0.009250
O	      6.21496      6.01589      6.14957        -0.092946      0.029272     -0.050234
O	      6.18619      4.18955      7.99071        -0.037457      0.099058     -0.163153
O	      8.09550      6.07139      8.21690        -0.017845      0.043291      0.048557
O	      2.07282      6.08326      6.19308        -0.050364     -0.050988      0.460813
O	      4.17391      6.14044      8.21162        -0.072760      0.140611     -0.137126
O	      6.21850      8.14515      8.28209         0.207539      0.077418      0.050775
O	      6.21815      6.07746     10.08657         0.027252      0.014534      0.007491
O	      8.22937      8.05583     10.25229        -0.030083     -0.097520      0.033927
