# total energy = -201.89097123 eV
 
CRYSTAL
PRIMVEC
-0.020013 6.189398 6.240273 
6.096091 -0.023181 6.242858 
4.082414 4.147016 -0.033945 
PRIMCOORD
36 1
Li	      6.04331      0.01547      6.21982         0.016039      0.074574     -0.015261
Li	      2.03366      0.04696      2.02849         0.013036      0.014794     -0.039573
Li	      8.16250     10.25063     10.45141         0.012228     -0.026832      0.023709
Li	      6.07206      2.07886      8.28812         0.003049      0.023405     -0.062714
Li	      8.05492      4.15601      8.23163        -0.007494      0.005069     -0.079249
Li	      8.12261      6.08626      6.30875         0.041042     -0.069823      0.033738
Li	      6.09263      4.12700     10.33828        -0.014753      0.011744     -0.065698
Li	      8.05094      6.26363     10.33394        -0.007874      0.071233     -0.006736
Li	      8.15486      8.21871      8.32574        -0.019226     -0.016140      0.027754
Ti	      4.03980      4.21277      4.05546         0.163509      0.082159     -0.322306
Fe	      4.03609      2.07285      2.04628        -0.027467     -0.053019     -0.065979
Co	      8.12561      8.25366     12.41381        -0.194670      0.068991     -0.040193
Co	      6.12633      8.19371     10.39027         0.097171     -0.037683      0.109829
Co	      6.13902      6.13114      8.34956         0.146397      0.000232      0.225818
Cu	      2.05794      2.01933      4.15483         0.055125     -0.095652     -0.096340
Cu	      2.03256      4.15979      6.24382        -0.095522      0.097249      0.030355
Cu	      4.06475      6.20384      6.25099        -0.049776      0.002277     -0.018905
Ni	      6.12499      4.07233      6.30153         0.077636     -0.093059      0.105988
O	      2.10956      6.38099      6.21220        -0.127910     -0.007833     -0.038896
O	      8.01080      8.25021     10.53015        -0.060019      0.011411      0.043061
O	      2.08238      2.05409      1.87205        -0.057844      0.004826     -0.072433
O	      4.07904      4.10164      2.16832        -0.015128      0.009181      0.433700
O	      4.09270      2.12607      4.11472         0.107518      0.109981      0.086267
O	      6.02360      4.07994      4.18544        -0.122420     -0.110170     -0.076403
O	      6.22801      2.02945      6.08114        -0.123044     -0.065816     -0.017181
O	      8.13385      3.92840      6.21609         0.147832     -0.034423     -0.069070
O	      2.10305      4.01497      4.23718         0.089399      0.050751     -0.017362
O	      4.15313      6.14010      4.16057        -0.036606     -0.229775     -0.044886
O	      3.98184      4.21437      6.16032        -0.030180     -0.153361     -0.118248
O	      6.05575      6.10232      6.40790         0.042885      0.062282      0.166379
O	      6.05126      4.27383      8.33714         0.027839      0.093699      0.124018
O	      7.96890      6.19352      8.29787        -0.066642     -0.038094     -0.021011
O	      4.08311      8.23703      6.24527         0.013012      0.082294     -0.067486
O	      4.18176      6.23795      8.25975         0.013212     -0.021720      0.125570
O	      6.06214      8.11731      8.38215         0.019164      0.031797     -0.005397
O	      6.08203      6.30301     10.26385        -0.029519      0.145450     -0.174860
