# total energy = -88.17901457 eV
 
CRYSTAL
PRIMVEC
0.083855 2.170244 2.275485 
1.956465 -2.202563 0.111323 
9.271482 13.279082 0.033408 
PRIMCOORD
16 1
Li	      1.70200      2.69602     -0.92343        -0.008842      0.007539     -0.007837
Li	      3.61119      2.25433     -2.51361        -0.001580      0.004988      0.002126
Li	      3.98575      6.54203     -1.83414        -0.000499     -0.009078      0.007146
Li	      5.83207      6.17429     -3.42266         0.007688     -0.001489      0.005149
Mn	      0.47986      1.87900      2.19178         0.035875      0.003406     -0.008541
Mn	      7.11435      6.94837     -6.50856        -0.041037     -0.004042      0.006964
Ni	      7.37684     11.13946     -6.71221        -0.033410     -0.019369     -0.003923
Ni	      9.49320     10.96160     -8.78596         0.029653      0.020697      0.000238
O	      9.61556     13.06584     -8.64302         0.084253      0.054531     -0.046453
O	      7.25217      9.03567     -6.85507        -0.080732     -0.044730      0.044701
O	      9.37113      8.86356     -8.83031         0.002788      0.005512     -0.002789
O	      7.26041      7.19291     -4.44216        -0.048524     -0.000700     -0.004935
O	      3.97002      4.20960     -2.16316         0.002846      0.003761     -0.002734
O	      5.92111      4.28118     -3.77193         0.012489     -0.018600     -0.003235
O	      2.28784     -0.56487      0.23615         0.032892     -0.003340      0.010113
O	      3.55873      2.39835     -0.46567         0.006139      0.000913      0.004011
