# total energy = -90.95544827 eV
 
CRYSTAL
PRIMVEC
2.079620 2.079672 0.000021 
2.091527 -2.091483 7.827500 
4.182828 -4.182927 0.000049 
PRIMCOORD
16 1
Li	      5.22161     -3.14077      0.97816        -0.001827     -0.001546      0.000174
Li	      3.12880     -1.05096      0.97832         0.001696      0.002489     -0.000522
Li	      3.10085     -1.01903      4.89164        -0.012317      0.007533      0.000233
Li	      5.25312     -3.17194      4.89219         0.005492     -0.009228      0.001544
Mn	      3.13597     -3.13556      2.92419         0.002036     -0.002835     -0.016002
Mn	      3.13546     -3.13543      6.85971         0.001306      0.000340      0.017638
Ni	      1.04458     -1.04416      2.93176         0.000058     -0.000160     -0.007011
Ni	      7.30639     -3.14715      6.85198         0.000276      0.001080      0.008310
O	      5.14977     -3.06946      2.93570        -0.133697      0.133548     -0.002459
O	      3.20215     -1.12218      2.93553         0.131917     -0.130368      0.007414
O	      3.20160     -1.12167      6.84813         0.134883     -0.133925      0.000800
O	      5.14922     -3.06939      6.84866        -0.131751      0.131591     -0.008146
O	      3.13553     -3.13557      1.03569         0.005012     -0.004183      0.180728
O	      3.12323      1.03569      0.92070        -0.001469      0.003405     -0.180912
O	      5.22850     -5.22663      4.89184        -0.000817      0.001047     -0.000696
O	      3.13657     -3.13584      4.89207        -0.000797      0.001214     -0.001092
