# total energy = -201.73558811 eV
 
CRYSTAL
PRIMVEC
0.031991 6.266168 6.266546 
6.102325 0.066095 6.233214 
4.102755 4.190902 0.008461 
PRIMCOORD
36 1
Li	      8.19237      8.36717     12.37232        -0.014236     -0.043355      0.014139
Li	      8.19981     10.41941     10.38293         0.079935     -0.002852      0.070831
Li	      4.07046      6.27281      2.15358        -0.071042     -0.027385     -0.027202
Li	      4.10679      4.20092      4.26365        -0.040240      0.048041     -0.003644
Li	     10.14323      8.39476     10.38670         0.013552      0.048198      0.062011
Li	      2.14931      6.34697      4.20828        -0.039796     -0.060397     -0.001339
Li	      2.12399      4.31533      6.24254        -0.094697      0.030376     -0.086534
Li	      4.00849      6.20499      6.25511        -0.051829      0.004270     -0.024656
Li	      8.20666      8.41792      8.37750         0.059285     -0.069201      0.002082
Ti	      6.05884      6.41165      4.23834        -0.405317      0.439946      0.083690
Fe	      6.11948      6.35771      8.35014         0.252266     -0.196398      0.051077
Co	      0.06953      6.20628      6.21205         0.010672      0.407082     -0.271437
Co	      8.15068      4.25715      8.31952        -0.010586      0.134436      0.262244
Co	      8.20010      6.30485      6.28585         0.198299     -0.134921      0.270373
Cu	      2.10270      6.27240      8.33562         0.050278      0.019219     -0.055671
Cu	      4.11031      8.36955      8.29961        -0.122129      0.158839     -0.357597
Cu	      6.17328      8.42339     10.42509        -0.039773     -0.136465      0.268297
Cu	      6.12328      4.17823      6.25700         0.148510     -0.012351     -0.030848
O	      2.01730      6.30372      6.40715         0.135040     -0.045598     -0.068465
O	      4.08960      8.67230      6.13486        -0.040799     -0.467232      0.380696
O	      8.04881      8.42246     10.39519         0.044224      0.034807     -0.069525
O	      2.09663      2.18997      2.21874         0.076735      0.057731      0.074699
O	      3.97480      4.09766      1.95870        -0.014613     -0.148309      0.116943
O	      4.14926      2.10818      4.37263         0.007781      0.037063     -0.237728
O	      6.14801      4.23778      4.13847         0.006646      0.037202      0.216557
O	      6.00295      1.85278      6.28637        -0.002423      0.074104      0.045052
O	      8.07597      4.34692      6.38329        -0.208569      0.045698      0.003539
O	      2.08115      4.11510      4.04923        -0.010292     -0.362384     -0.181754
O	      4.23174      6.29664      4.25184         0.450026      0.025567     -0.074722
O	      4.25507      4.00393      6.30746        -0.048730      0.053930     -0.022418
O	      6.27251      6.45241      6.21456        -0.043714      0.108054     -0.205936
O	      6.21422      4.33728      8.24880         0.003531     -0.228393     -0.051045
O	      8.11687      6.19061      8.24004         0.186993     -0.067028     -0.146076
O	      4.18410      6.40381      8.25494        -0.386314     -0.069146      0.057899
O	      6.08782      8.33486      8.33926        -0.017600      0.302094     -0.145407
O	      6.16124      6.41392     10.39294        -0.061077      0.004757      0.081875
