# total energy = -201.01156736 eV
 
CRYSTAL
PRIMVEC
0.020925 6.295025 6.151305 
6.195929 0.041972 6.129833 
4.132982 4.184754 0.026422 
PRIMCOORD
36 1
Li	      4.10336      2.12458      2.09133         0.008889     -0.009378      0.159315
Li	      4.17688      6.35030     10.14404        -0.007641      0.056602      0.017211
Li	      4.12974      6.35081      2.19450         0.032823     -0.039567     -0.024504
Li	      6.13723      6.21593      4.06842        -0.014594     -0.082316     -0.002370
Li	      4.17756      4.21197      4.07994         0.044769     -0.035647      0.015584
Li	      6.17103      4.23294      6.32487        -0.033692      0.004615     -0.059899
Li	      6.22138      4.14954     10.12770        -0.012458     -0.034648      0.053688
Li	      4.28441      4.21345      8.21599         0.002359      0.003157      0.000979
Li	      6.25658      6.11499      8.26200        -0.032309      0.007360      0.018871
Ti	      6.21279      8.26111      6.09157         0.229396     -0.268382     -0.239664
Fe	      8.28321      2.27097      6.14812        -0.174739      0.054384     -0.067256
Co	      6.15847      4.18942      2.06577         0.071442     -0.042160      0.338509
Co	      6.17063      2.16843      4.06693        -0.299885      0.232915      0.119489
Co	      4.11958      6.26376      6.16002         0.146136     -0.130605      0.083253
Ni	      6.18969      0.08259      6.11017        -0.011090      0.111168     -0.024340
Ni	      8.29799      6.38951     10.14760         0.021180     -0.059293     -0.211933
Ni	      2.01821      4.19573      2.13235         0.169015     -0.113802      0.033224
Ni	      4.19332      2.10449      6.16458        -0.177854      0.096502     -0.146450
O	      6.25656      4.18291      8.24519        -0.100861      0.010608     -0.018663
O	      2.06229      1.96194      1.99113        -0.001722     -0.077046     -0.005786
O	      4.26521      4.21036      2.03335         0.097611      0.025908     -0.025277
O	      4.29626      2.11750      4.27043         0.347952      0.009052     -1.077856
O	      6.21737      4.05563      3.95560        -0.002801     -0.112691     -0.177205
O	      6.22165      2.15564      5.97616         0.534452      0.054566     -0.218386
O	      8.30399      4.25310      6.17859        -0.045690     -0.586815      0.098204
O	      2.08059      4.26247      4.20345        -0.061123     -0.116623      0.342460
O	      4.10926      6.26998      4.32744         0.011116      0.060045      0.023241
O	      4.00805      4.13561      6.18850        -0.384558      0.531995      0.024841
O	      6.18003      6.38545      6.17686        -0.467282      0.320147      0.035288
O	      8.32019      6.23762      8.06921        -0.075806      0.054103      1.219767
O	      2.09767      6.29335      6.21158         0.083672     -0.023522      0.013917
O	      4.15414      8.41941      6.13186         0.107053     -0.076273     -0.000344
O	      3.96551      6.31964      8.03503        -0.088263     -0.027932     -0.109508
O	      6.15821      8.59658      8.22934         0.025642      0.101062     -0.065655
O	      6.26497      6.57789     10.22528        -0.035692      0.012996     -0.059689
O	      8.12058      8.42550     10.30521         0.094551      0.089517     -0.063055
