# total energy = -203.20224437 eV
 
CRYSTAL
PRIMVEC
-0.013007 6.169278 6.347189 
6.106928 0.001369 6.332561 
4.063795 4.095332 0.008320 
PRIMCOORD
36 1
Li	      2.03654      6.16250      8.41500        -0.147874      0.043425      0.092829
Li	      8.16929     10.14301     10.57606        -0.004702      0.029767      0.080699
Li	      8.11031      4.13333      8.45623        -0.109577      0.092599      0.024109
Li	      8.05051      6.19249      6.46282         0.110957     -0.118229      0.238635
Li	      6.00795      4.19470     10.43434         0.039962      0.014498     -0.225227
Li	      8.06926      6.27851     10.51231         0.044761     -0.067121     -0.226564
Li	      2.09873      4.11831      6.30951        -0.058075     -0.052181      0.003976
Li	      8.13121      8.16785      8.57326         0.141770     -0.143096     -0.024738
Li	      6.17261      6.13781      8.57933         0.286679     -0.227732      0.050828
Ti	      4.17015      8.09252      8.45527        -0.031923      0.855488      0.290531
Fe	      6.08248      6.19745     12.56318        -0.336733      0.359473      0.412243
Co	     10.09222      6.14733      8.48410         0.448993      0.156523     -0.243209
Co	      2.03852      2.07435      4.21242        -0.161378      0.212036     -0.545035
Co	      4.04115      4.11733      4.21484        -0.104000      0.096187     -0.419270
Co	      4.01567      6.14282      6.33938         0.387371     -0.212302     -0.307203
Cu	      8.12963      8.22911     12.55130        -0.060056      0.171153      0.132797
Cu	      6.10376      4.08862      6.36010         0.297151     -0.158789      0.550289
Ni	      6.15513      8.20825     10.52466        -0.291155      0.353687      0.158178
O	      8.07637      8.24027     10.55756         0.537101      0.012461      0.156720
O	      1.99197      2.02546      2.31904         0.486047     -0.095737      0.184210
O	      4.06544      4.18552      2.20876         0.026225     -0.826741      0.045291
O	      4.00240      2.18797      4.13221        -0.065905     -0.120725     -0.055257
O	      5.98004      4.18384      4.31877         0.010302      0.080841     -0.181328
O	      6.04562      2.03379      6.51249        -0.034264     -0.314719     -0.144180
O	      8.17686      4.00362      6.33727        -0.099736      0.026946     -0.070167
O	      2.12787      3.90306      4.24015         0.020035     -0.045718      0.105071
O	      4.16159      6.06328      4.13061         0.091855     -0.113742      1.285740
O	      4.07490      4.15340      6.12514        -0.267436      1.430047      0.223505
O	      6.04933      6.08925      6.14645        -1.228054      0.229599      0.209395
O	      6.10333      3.92185      8.35273        -0.209866      0.497503     -0.088759
O	      8.28064      6.13031      8.49388        -0.739354      0.135207     -0.069482
O	      1.98502      6.28037      6.34580         1.461839     -0.320534      0.004789
O	      4.11457      8.29758      6.52782         0.029322     -1.103555     -0.108746
O	      4.07951      6.26685      8.46640        -0.069504     -0.380455     -1.238172
O	      6.01331      8.22499      8.51536        -0.336143     -0.020033     -0.284505
O	      6.08488      6.23417     10.66580        -0.064636     -0.476032     -0.017995
