# total energy = -204.55803576 eV
 
CRYSTAL
PRIMVEC
-0.051207 6.177492 6.166829 
6.167104 -0.068996 6.184957 
4.065208 4.083945 0.000156 
PRIMCOORD
36 1
Li	      4.05555      4.11405      0.09295        -0.013966     -0.090956      0.165374
Li	      1.99210      2.08403      0.09728         0.029157      0.081603      0.121820
Li	      1.96458      0.10241      2.06524        -0.128838      0.244927     -0.150030
Li	      3.96507      2.12657      2.06725        -0.275378      0.199448     -0.102413
Li	      2.02743      4.03848      2.13907         0.112093     -0.110625      0.102682
Li	      2.05761      2.07604      3.96015        -0.092476      0.136459     -0.155158
Li	      6.18055      3.98795      6.20315         0.044830      0.059489      0.059698
Li	      6.19889      4.06764     10.23148         0.109770     -0.102181      0.061085
Li	      1.98646      6.09687      4.06984         0.095627     -0.092429      0.011016
Ti	      4.00939      6.20385      6.06955        -0.270679      0.323092     -0.346507
Fe	      1.99553      4.11380      6.11207        -0.036843      0.042635      0.138041
Co	      8.14587      4.02718      4.12835         0.188109      0.027987      0.279175
Co	      6.10742      8.16051     10.29040        -0.023761      0.118448      0.605902
Co	      8.15244      8.15908      8.27323         0.095354     -0.187606     -0.114924
Co	      6.11622      6.08668      8.27751         0.146887     -0.182582     -0.167900
Ni	      0.03154      2.07064      2.02461        -0.024836     -0.032738      0.103481
Ni	      4.06244      4.04830      4.04348         0.038608      0.029531     -0.079053
Ni	      8.18392      6.04227      6.18060        -0.244920     -0.002656      0.225086
O	      1.95128      2.08413      2.03917         0.430248      0.061719      0.034440
O	      4.04847      4.18472      2.09374        -0.092161     -0.372896     -0.127524
O	      4.20934      1.92826      4.12201         0.182394     -0.138573     -0.175020
O	      6.27223      3.90109      4.06625        -0.127498     -0.027310     -0.078703
O	      6.11258      1.98588      6.06285         0.349848     -0.016718     -0.524594
O	      8.18780      4.04973      5.93571        -0.031461     -0.214764     -0.399201
O	      2.06782      4.07515      4.22340        -0.141203      0.023832     -0.081781
O	      4.08971      6.09113      4.21607        -0.043292      0.163552      0.520939
O	      4.04419      4.11552      6.27925         0.109878      0.046712      0.129116
O	      6.06732      6.14464      6.33677        -0.121811     -0.076548      0.136374
O	      6.00454      4.12015      8.26655        -0.180959      0.348936      0.043612
O	      8.09475      6.22404      8.23484        -0.270257      0.145831      0.131241
O	      2.12884      6.08567      6.22040         0.251983      0.045133     -0.042784
O	      4.09434      8.08260      6.21485        -0.055771     -0.310761     -0.082500
O	      4.18025      6.01227      8.30034         0.020472     -0.051358      0.035414
O	      6.20008      8.03053      8.31262         0.104102      0.003781     -0.106257
O	      5.97050      6.21233     10.19348        -0.054554     -0.091178     -0.101612
O	      8.03843      8.27082     10.18680        -0.078696     -0.001236     -0.068534
