# total energy = -207.61457925 eV
 
CRYSTAL
PRIMVEC
-0.036733 6.107377 5.991087 
6.338489 -0.075719 6.029742 
4.170271 4.042720 0.004546 
PRIMCOORD
36 1
Li	      4.21230      8.05650      8.01284         0.022630      0.029698      0.015373
Li	      8.30867     10.04969      9.98362        -0.043119      0.133883      0.003619
Li	      6.36101      8.07025     10.00533        -0.096543      0.082703     -0.005490
Li	      6.24133      2.09339      8.03013        -0.022425      0.019594      0.069206
Li	      8.23252      4.08635      8.06811        -0.055998     -0.059319      0.058050
Li	      4.27693      2.04643      6.07340        -0.038765      0.056233     -0.058756
Li	      6.31670      3.91213      6.10257        -0.052218      0.011324     -0.073610
Li	     10.33861      8.03008      9.98354         0.043294     -0.038333      0.019626
Li	      4.24519      4.01899      8.05172        -0.020746     -0.003461     -0.115838
Ti	     10.31999      4.01743      6.04093        -0.142679     -0.050286      0.037754
Fe	      6.29482      5.97350      8.10603        -0.272706      0.254521     -0.198552
Co	      2.12029      6.03627      7.99553         0.014819     -0.068300      0.093515
Co	      2.15200      2.01139      3.93384        -0.033021      0.036171      0.089347
Co	      4.21789      4.02091      3.97184         0.032094     -0.010089     -0.013947
Co	      2.13773      4.03185      5.98041         0.075237     -0.084470     -0.023626
Co	      4.21519      6.07131      5.98152         0.127179     -0.026905     -0.018533
Cu	      8.34770      2.00247      6.06974        -0.062560     -0.062845      0.231608
Cu	      8.39866      6.06926      9.97886         0.060224     -0.110980      0.154667
O	      8.36811      7.98389     10.16924        -0.018873      0.137190     -0.102777
O	      2.11762      1.85387      2.06630         0.061742      0.020515     -0.302542
O	      4.37818      3.98990      1.98613         0.017655     -0.018435     -0.071101
O	      3.99753      2.12392      4.04630        -0.015190     -0.052816     -0.038936
O	      6.18044      4.10303      3.91813         0.017834     -0.198332     -0.041619
O	      6.31650      1.83822      6.04922        -0.053877     -0.107079     -0.015960
O	      8.50709      3.99740      6.10837         0.195550      0.042817      0.002749
O	      2.28233      4.00006      4.03243         0.054602      0.190757     -0.043791
O	      4.37642      5.96139      4.05166         0.124739      0.009375     -0.033855
O	      4.09280      4.14480      5.87593         0.054893      0.005646     -0.080126
O	      6.14799      6.15622      5.91829        -0.038305      0.054562      0.209762
O	      6.27254      4.10605      8.01594        -0.055179     -0.266188      0.017428
O	      8.27234      6.06480      8.08197         0.194951     -0.019002     -0.096479
O	      2.25156      5.95370      6.00200         0.043146      0.012922     -0.006391
O	      4.35872      8.06943      5.95348        -0.039073      0.040691     -0.048617
O	      4.10984      6.05687      7.89806        -0.021154     -0.008609      0.061599
O	      6.27837      8.10970      7.89850         0.051417      0.038438      0.056721
O	      6.17391      6.04350     10.08838        -0.109578      0.008407      0.269522
