# total energy = -136.12403521 eV
 
CRYSTAL
PRIMVEC
-4.190279 -0.002063 -0.000027 
2.092068 -6.227209 3.963660 
-2.092016 6.227098 3.963509 
PRIMCOORD
24 1
Li	     -1.05070     -1.01244      1.00554         0.004200      0.012602     -0.007994
Li	     -1.04734     -1.00920      4.93766        -0.005755      0.002404      0.004906
Li	     -1.04738      3.09778      4.96487         0.000910     -0.009586     -0.005971
Li	      1.04720     -3.12904      4.94198        -0.004736     -0.011316      0.003555
Li	     -3.14049      1.02318      0.99193        -0.002160     -0.002136     -0.001361
Li	     -3.14258      1.02502      4.94981         0.002907     -0.005407      0.004241
Mn	     -3.14153      3.07759      2.97115         0.001183      0.028829      0.002811
Mn	     -1.04918     -3.10528      2.97210         0.000256      0.048132     -0.006046
Mn	     -3.14398     -1.00395      6.93413        -0.003005     -0.023433      0.018984
Ni	     -1.04675      1.04614      6.93416        -0.001884     -0.026416      0.006976
Ni	     -1.04726      0.99572      2.97095         0.002697      0.032968     -0.000498
Ni	     -3.14403     -1.01726      2.97185        -0.001134      0.000471     -0.003902
O	     -1.04909     -1.12480      2.97152         0.002288     -0.109194      0.000970
O	     -1.04922     -1.14068      6.93493         0.001589     -0.015836     -0.003078
O	     -3.14416     -3.09977      2.97173         0.000880     -0.037991     -0.000239
O	     -5.23660      3.18036      2.97133         0.002378      0.031781     -0.001370
O	     -3.14225      1.11528      2.97078        -0.000844      0.073235      0.002864
O	     -3.14177      1.05396      6.93469         0.001134      0.021915     -0.000962
O	     -1.04618      1.02351      1.00990        -0.002421     -0.000784      0.009556
O	     -1.04743      1.02468      4.93197         0.001279     -0.003508     -0.009487
O	     -3.14518     -1.01479      0.89743         0.002780     -0.003211     -0.093725
O	     -3.14475     -1.01521      5.04557         0.004188      0.000479      0.080726
O	     -1.04810     -3.12505      4.95045        -0.005075      0.000830      0.027430
O	     -3.14156      3.10351      4.95630        -0.001655     -0.004828     -0.028384
