# total energy = -209.56059603 eV
 
CRYSTAL
PRIMVEC
0.075577 6.321401 6.070261 
6.240178 0.054260 6.092268 
4.166890 4.236377 0.029330 
PRIMCOORD
36 1
Li	      0.25715      6.37156      6.02908        -0.011254      0.020060     -0.029347
Li	      2.09924      8.27309      6.03477        -0.021659      0.016820      0.076216
Li	      2.10135      6.40507      7.92393         0.075296      0.067084     -0.013185
Li	      4.26361      6.26918      2.09661         0.001328     -0.088781     -0.027147
Li	      4.14290      4.38646      4.13998         0.058540      0.039710     -0.023163
Li	      4.18171      2.12814      6.06647        -0.039423      0.072467      0.034687
Li	      2.21141      6.27709      4.18542        -0.014447      0.009560     -0.067263
Li	      2.16836      4.47702      5.96152         0.108114     -0.069887      0.014996
Li	      4.07229      6.33229      6.00847         0.071221     -0.085179      0.062861
Ti	      4.25362      8.53977      7.98497        -0.224926     -0.003759     -0.416408
Fe	      8.35548      4.30229      8.10949         0.068401      0.138272     -0.134248
Co	      4.20658      4.18961      8.01521        -0.031658      0.339514      0.706128
Co	      8.31690      4.29210      4.11801         0.152069     -0.006457     -0.209287
Co	      6.23160      2.17717      4.13216         0.029115     -0.067314      0.207324
Co	      6.25603      6.36338      4.14877         0.048019     -0.010325      0.169801
Co	      6.27946      4.24634      6.10088        -0.448730      0.058623     -0.359943
Co	      6.27617      6.36075      8.09681        -0.148706     -0.030925      0.383366
Ni	      4.21563      8.37394      4.16813        -0.094112      0.125964      0.045102
O	      2.14754      6.35997      6.04512        -0.040288      0.059272     -0.021716
O	      2.22260      2.14921      2.18079         0.103095      0.064218     -0.149174
O	      4.09116      4.13644      2.05189         0.103255     -0.189411      0.005586
O	      4.20431      1.98825      4.03700         0.078107     -0.071409     -0.041939
O	      6.38217      4.39926      4.19169         0.010557      0.051560      0.067061
O	      6.22461      2.31031      5.96651         0.060086      0.012018     -0.165061
O	      8.20103      4.24523      6.08732         0.053324     -0.084938      0.074179
O	      2.08603      4.05817      4.02092         0.052189     -0.010697     -0.013569
O	      4.37112      6.37199      4.06142         0.018311     -0.089629     -0.018685
O	      4.30813      4.23406      6.20107         0.291940     -0.166831      0.169291
O	      6.29237      6.17486      6.13600         0.003407     -0.069577      0.274903
O	      6.28178      4.21262      8.06005        -0.096652      1.046066     -0.003811
O	      8.18565      6.35367      8.20333        -0.156321      0.013372     -0.113568
O	      4.24505      8.43820      6.18567         0.010927      0.035728      0.465131
O	      4.34222      6.41377      8.21200         0.235813     -0.064120      0.014896
O	      6.27390      8.50066      8.26300        -0.032233     -0.982101     -0.151244
O	      6.14479      6.31171     10.06009        -0.089344      0.096420     -0.403678
O	      8.30547      8.68776     10.04002        -0.183363     -0.175387     -0.409092
