# total energy = -211.85803063 eV
 
CRYSTAL
PRIMVEC
-0.081532 6.187768 6.121587 
6.253955 -0.000744 6.039067 
4.189339 4.090315 -0.020311 
PRIMCOORD
36 1
Li	     10.36425      4.06559      6.00475         0.034734      0.019380      0.012405
Li	      2.09081      2.03475      0.00816        -0.011378     -0.007286     -0.021806
Li	      3.96444      2.13215      1.96636         0.088584      0.055461      0.045326
Li	      6.19030      2.07663      4.14544        -0.043660      0.003915     -0.006378
Li	      2.10255      4.01411      2.03505         0.095539      0.070912     -0.018058
Li	      2.14153      2.05533      4.06051        -0.020877      0.024666      0.055221
Li	      4.24215      1.99376      5.98529         0.027276      0.071869      0.070458
Li	      6.27542      4.04170      5.98301        -0.079937     -0.012074      0.030301
Li	      1.97100      4.17122      6.02524         0.040149     -0.020875      0.088595
Ti	      6.26421      6.26328      8.00216         0.066776      0.261631     -0.228260
Fe	      0.08045      2.02198      1.90945        -0.245424     -0.003850      0.105822
Co	      4.15303      4.13048      8.02027        -0.034430     -0.067348      0.484673
Co	      6.23818      4.08998      1.97107        -0.095999     -0.054327      0.045025
Co	      8.22812      4.20273      4.16982         0.096873      0.106799      0.076890
Co	      4.14829      4.01957      4.08592        -0.159048      0.070151      0.302954
Co	      4.16961      8.21030      4.09443        -0.029999      0.120884     -0.074527
Co	      2.02009      6.18075      4.12116         0.006718      0.018301     -0.096693
Co	      4.12502      6.21329      6.08852        -0.098159     -0.166320     -0.046267
O	      1.98487      2.02921      2.04588         0.072562     -0.127526     -0.030472
O	      4.12315      4.15102      2.14476         0.131803     -0.063674     -0.199783
O	      4.14156      2.04672      4.01710         0.013794     -0.278208      0.008865
O	      6.27028      4.09140      3.98011        -0.015137      0.015460     -0.079849
O	      6.20250      2.01535      6.12153         0.099064      0.064972     -0.239340
O	      8.35416      4.06480      5.91757        -0.086273     -0.066922     -0.164184
O	      1.96260      4.27423      4.08014        -0.096918      0.021923     -0.006771
O	      3.96799      6.21103      4.12393        -0.002041      0.094572      0.023832
O	      4.15701      4.22859      6.11590        -0.016917      0.239652     -0.354353
O	      6.12365      6.16202      6.15569        -0.002576     -0.015378      0.264502
O	      6.19644      4.13845      8.18315        -0.108218      0.057107      0.123345
O	      8.24993      6.19340      8.16442        -0.096472     -0.205702      0.108980
O	      2.20729      6.18534      6.04843         0.054252      0.049070      0.046923
O	      4.13540      8.10619      5.98214        -0.040810     -0.068478     -0.095700
O	      4.22930      6.17378      8.10672         0.130082      0.057023     -0.015922
O	      6.32226      8.15753      8.14060         0.111481     -0.068025     -0.137957
O	      6.29938      6.05598     10.09354         0.078259     -0.111578     -0.042923
O	      8.45651      8.18249      9.99527         0.136326     -0.086176     -0.034874
