# total energy = -190.73695600 eV
 
CRYSTAL
PRIMVEC
-0.018273 6.070155 6.218280 
6.203502 -0.003705 6.203678 
4.158102 4.059787 -0.024999 
PRIMCOORD
36 1
Li	      6.19145      6.06351     12.37053        -0.015794      0.009004      0.004838
Li	      6.26865     10.11025      8.33051        -0.025483      0.001373      0.096012
Li	      8.23666      4.08543      4.15758        -0.047138      0.013208      0.061990
Li	      8.27165      4.03923      8.24098         0.049818     -0.013774     -0.037513
Li	      4.16306      4.04476      4.23207         0.030702      0.033023     -0.003106
Li	      4.08093      2.01276      6.12443        -0.020495     -0.046613      0.002812
Li	      6.17535      4.06520      6.16612        -0.008557     -0.000174     -0.004238
Li	      2.13766      4.05565      6.15366         0.033617      0.006059      0.036071
Li	      4.12687      6.02238      6.19671         0.028949     -0.017499     -0.041225
Ti	      4.16834      2.08419      2.03832         0.026953      0.362321     -0.046399
Fe	      0.03027      1.94458      2.02451        -0.029894     -0.058480     -0.008087
Cu	      4.12181      4.10397      8.22874        -0.075832     -0.067716     -0.108235
Ni	      8.25508      8.10463     12.39066        -0.049527      0.060470      0.102869
Ni	      6.18840      2.07306      4.18426        -0.082755      0.016587      0.069055
Ni	      6.23726      6.05797      4.21298        -0.049299     -0.015344      0.030990
Ni	      4.13567      8.13805      4.16872         0.042105      0.039919      0.092229
Ni	      2.08876      6.06588      4.13383         0.105571     -0.234730     -0.089363
Ni	      6.21577      6.06129      8.18364         0.095232     -0.026416     -0.062572
O	      2.08850      1.99886      2.15053         0.135670      0.008844     -0.067445
O	      4.15189      4.01136      2.03758         0.016360     -0.352513      0.020139
O	      4.13340      2.03443      4.03204         0.008800     -0.009518     -0.157295
O	      6.21780      4.05911      4.17314        -0.035748      0.057093     -0.027353
O	      6.33456      2.00492      6.25558        -0.048335     -0.018564      0.005537
O	      8.28702      3.89622      6.19120        -0.006701      0.176527      0.019588
O	      1.96713      4.07583      4.17102         0.180622     -0.131645     -0.041126
O	      4.13048      6.10260      4.03451        -0.002883     -0.052325      0.068878
O	      4.10789      4.01352      6.33340         0.084169      0.062479      0.253437
O	      6.23518      6.08206      6.17523        -0.069795      0.001545     -0.039551
O	      6.10079      4.01821      8.31716         0.061437     -0.034725     -0.086503
O	      8.33128      6.12275      8.39019        -0.025313      0.100661     -0.192371
O	      2.06892      6.20559      5.99722        -0.030669     -0.142679      0.303496
O	      3.98063      8.11930      6.28052         0.138306     -0.035744      0.202579
O	      4.16817      6.10983      8.26568        -0.139945     -0.045841      0.016106
O	      6.11995      8.10851      8.28971        -0.113870      0.086200     -0.110140
O	      6.32951      6.10753     10.23655        -0.182768     -0.003826      0.064510
O	      8.25413      8.03894     10.28824         0.022489      0.272811     -0.328613
