# total energy = -192.27048083 eV
 
CRYSTAL
PRIMVEC
0.014878 6.204703 6.263781 
6.134518 0.012254 6.266176 
4.102543 4.151620 -0.004862 
PRIMCOORD
36 1
Li	      2.09730      8.19999      6.26989        -0.009947     -0.028176      0.004956
Li	      2.02314      6.21972      8.22990        -0.032587      0.003071     -0.020986
Li	      4.11505      8.29846      8.25505         0.022782     -0.036221      0.002769
Li	      4.08208      6.16469      2.07664        -0.023507      0.017434      0.032086
Li	      4.07791      4.20954      4.20830         0.007376      0.000090      0.002021
Li	      4.07457      8.27994      4.29759        -0.027496     -0.037300     -0.007189
Li	      2.15976      6.13990      4.25869         0.018069     -0.013506     -0.060303
Li	      2.01640      4.24372      6.23308        -0.009133     -0.007696      0.018930
Li	      8.19472      8.30036      8.36520         0.013467     -0.018102      0.030184
Ti	      1.96676      2.16532      4.03844        -0.226271      0.299629     -0.454839
Fe	      6.16484      6.26086      8.38598         0.053838     -0.046548     -0.029498
Cu	      4.16270     10.26797      6.26980         0.039902      0.046712     -0.021312
Cu	      6.15270      4.14362      6.25307        -0.007131     -0.010586      0.055941
Ni	      6.16687      8.28575     10.44032        -0.065331     -0.029772     -0.096263
Ni	      8.19027     10.34566     10.42075         0.107265     -0.024633     -0.026267
Ni	      2.08249      4.14425      2.06994        -0.034404     -0.032261      0.172716
Ni	      4.08945      2.13831      6.28391         0.011915      0.070007      0.087086
Ni	      4.04945      6.23571      6.27051        -0.069497      0.049943      0.067516
O	      2.03144      6.18907      6.27676         0.013781     -0.037048     -0.070457
O	      4.11806      8.27131      6.27001         0.020574      0.021805     -0.028358
O	      2.00398      2.06225      2.18953        -0.009980     -0.105490      0.459609
O	      3.96201      4.16130      1.95266         0.272939      0.011563     -0.028063
O	      4.07666      1.91715      4.21464        -0.128364      0.107491     -0.031507
O	      6.24951      4.19679      4.23021        -0.167625      0.143904      0.018480
O	      6.09342      2.13761      6.15830         0.168203     -0.092287      0.177356
O	      8.19769      4.21046      6.31780        -0.112652     -0.083458     -0.046789
O	      2.12057      4.04481      4.09836        -0.053585     -0.378157      0.030837
O	      4.19519      6.22503      4.22353         0.359003     -0.028437     -0.101641
O	      4.20466      4.16285      6.26689        -0.038683      0.048607     -0.050522
O	      6.16090      6.18981      6.23689        -0.076187      0.079317     -0.054186
O	      6.28373      4.27785      8.25548        -0.120724     -0.046432     -0.042288
O	      8.05879      6.20156      8.37428         0.122558      0.131794      0.027002
O	      4.29171      6.19169      8.34144        -0.239120     -0.001752     -0.025813
O	      6.16860      8.12754      8.47963         0.027492      0.208288     -0.127450
O	      6.02675      6.19754     10.48900         0.115585     -0.052943      0.115679
O	      8.11708      8.47911     10.43963         0.077477     -0.128849      0.020562
