# total energy = -190.72089910 eV
 
CRYSTAL
PRIMVEC
-0.003614 6.152677 6.205877 
6.199757 0.015907 6.186493 
4.166661 4.122068 -0.022546 
PRIMCOORD
36 1
Li	     10.30386      4.18953      6.24706        -0.050433     -0.060017     -0.142919
Li	      8.30272      8.23164     12.31245         0.012933      0.036129      0.001897
Li	      4.12688      2.12187      2.05118         0.003313     -0.105668     -0.010309
Li	      6.24408      8.20987     10.31786        -0.010844     -0.048237     -0.019413
Li	      4.16120      6.09667      2.07709        -0.111033      0.063673      0.064537
Li	      4.09751      4.13079      4.04698         0.024145      0.012158      0.070590
Li	      4.13927      2.00050      6.12811         0.045608      0.045069     -0.011144
Li	      4.13702      8.20301      4.16315        -0.068750      0.072033      0.011426
Li	      8.29878      8.25124      8.30802         0.002921      0.034791      0.036572
Ti	      6.19361      3.93697      6.20099        -0.090852     -0.672942     -0.116371
Fe	      6.24175      6.24048      8.26963         0.061014      0.238886      0.154408
Cu	      6.13632      4.12716      2.03357         0.022459     -0.103894      0.016245
Cu	      2.08439      2.06800      4.10557        -0.097444     -0.098867      0.284336
Cu	      2.05409      4.13526      6.18181         0.045279     -0.012550     -0.180463
Ni	      8.32613     10.25465     10.32293         0.206028     -0.143102     -0.135657
Ni	      2.10800      4.08744      2.04786         0.521957     -0.018285      0.199608
Ni	      8.29692      6.27054     10.34511        -0.105061     -0.146983     -0.069052
Ni	      4.17074      6.19926      6.17878        -0.115463      0.379384     -0.015040
O	      2.07158      6.10415      6.21361         0.197038      0.102481      0.058126
O	      4.24511      8.07956      6.18414         0.013567      0.641986      0.074023
O	      2.01911      1.94236      2.16987        -0.032050      0.702261     -0.447523
O	      3.98628      4.12757      2.04430         0.107766     -0.061112      0.058955
O	      4.04398      1.90252      4.11884         0.249241      0.110338      0.013338
O	      6.31741      4.17568      4.12513        -0.149603     -0.214711      0.059775
O	      6.13309      2.15338      6.16830         0.049547      0.424880      0.080052
O	      8.18314      4.09408      6.19951        -0.224680      0.017090      0.121759
O	      2.09681      4.05547      4.12688        -0.122348      0.347806     -0.187299
O	      4.16107      6.18237      4.28451        -0.085011     -0.088861     -0.602569
O	      4.25623      4.27170      6.16983         0.189470     -0.744107      0.073969
O	      6.27769      6.23602      6.24318        -0.197261     -0.063835     -0.328053
O	      6.32741      4.16011      8.13280        -0.105752     -0.102329     -0.148190
O	      8.12962      6.17526      8.33840         0.994689     -0.394372     -0.104766
O	      4.37719      6.17050      8.16730        -1.205074     -0.080488      0.421101
O	      6.26300      8.32592      8.12888        -0.045321     -0.210181      0.148359
O	      6.17054      6.20367     10.16256         0.016734      0.033621      0.599169
O	      8.29796      8.29964     10.30685         0.053272      0.107955     -0.029477
