# total energy = -192.86433824 eV
 
CRYSTAL
PRIMVEC
0.029725 6.207790 6.178896 
6.263657 0.042997 6.165958 
4.184215 4.138478 0.020099 
PRIMCOORD
36 1
Li	      2.06911      2.03540      0.08213        -0.068768     -0.023341      0.047526
Li	      2.05140      0.09716      2.07943        -0.068122      0.065254     -0.037909
Li	      6.24481      2.10316      4.13736        -0.011691      0.002335      0.020230
Li	      4.23385      6.21708      2.15246         0.037695      0.012954     -0.059244
Li	      6.20612      6.20145      4.10747        -0.061097      0.013783      0.017462
Li	      4.23608      4.22578      4.11799         0.059052      0.036974     -0.029489
Li	      6.21690      4.18228      6.18881         0.008301     -0.009558      0.023631
Li	      4.21924      8.19643      4.09943         0.021841     -0.012335     -0.047879
Li	      4.22994      6.18878      6.09545         0.029419      0.021599     -0.039216
Ti	      8.16847      4.14055      4.15322        -0.498235     -0.158576      0.391641
Fe	      6.33372      6.28819     12.30992        -0.080583      0.045966      0.162392
Cu	      4.14930      2.09615      2.07271         0.087648     -0.117545      0.067963
Cu	      2.19957      6.19886      4.13815         0.076371      0.185628      0.012992
Cu	      2.13839      4.15107      6.15061         0.028903      0.108230     -0.272268
Cu	      4.22911      4.17002      8.21897         0.010182      0.046292      0.039655
Ni	      2.08114      4.09695      2.07651        -0.130923      0.030324      0.129251
Ni	      4.18228      2.12374      6.14157         0.162615     -0.106464      0.131199
Ni	      6.29124      6.23457      8.24389        -0.031614     -0.068166      0.090965
O	      2.07699      6.18055      6.10055         0.215320     -0.103064      0.159413
O	      4.28996      8.43850      6.27199         0.077128     -0.404764      0.223463
O	      6.28419      8.20930      8.17444        -0.153482      0.268667      0.347188
O	      2.18162      2.13851      2.05858        -0.020994     -0.182689      0.056384
O	      4.14261      4.07089      1.93597         0.130865      0.064513      0.218532
O	      4.20183      1.95472      4.04989        -0.021853      0.015070     -0.190855
O	      6.35733      4.13204      4.16631         0.308902      0.010915     -0.046843
O	      6.23344      1.90806      6.20292        -0.012747      0.522955     -0.018041
O	      8.40938      4.17464      6.10716        -0.194080     -0.097579     -0.294127
O	      2.13745      4.23293      4.16798         0.051595     -0.058359     -0.232300
O	      4.12918      6.22283      4.13097         0.019255     -0.014158     -0.062473
O	      4.13078      4.12374      6.29808         0.061457      0.157160      0.009818
O	      6.34313      6.32580      6.25518        -0.140502     -0.046088     -0.218826
O	      6.29505      4.29677      8.19215        -0.048068     -0.276186      0.057704
O	      8.32743      6.21359      8.31201         0.167058      0.056508     -0.233051
O	      4.23849      6.26189      8.31624        -0.188235      0.073147     -0.107153
O	      6.27607      6.23259     10.37114         0.167193     -0.060353     -0.253497
O	      8.38227      8.37093     10.19177         0.010197      0.000951     -0.064241
