# total energy = -193.44537856 eV
 
CRYSTAL
PRIMVEC
-0.006295 6.185900 6.250912 
6.108330 -0.003745 6.248363 
4.097985 4.148067 -0.028123 
PRIMCOORD
36 1
Li	      2.03697      2.05971      0.03235         0.089077      0.030975      0.062699
Li	      4.05483      2.08551      2.05750        -0.024804      0.038342     -0.043232
Li	      2.07567      4.10863      2.06763         0.042319     -0.060696      0.013324
Li	      2.05936      2.06001      4.15117        -0.039428      0.039936     -0.030601
Li	      4.01194      4.15461      4.21260        -0.064181      0.005138      0.000425
Li	      6.08541      4.18651      6.25259        -0.055073     -0.029067     -0.004888
Li	      2.05254      6.16200      4.17667         0.011153     -0.087911      0.082059
Li	      4.11518      6.11973      6.25506        -0.049097     -0.096253      0.007537
Li	      4.06574      4.09457      8.27258        -0.018641      0.016290     -0.083552
Ti	      4.09165      8.12840      4.11968         0.321849     -0.364873      0.173829
Fe	      2.08109      6.21858      8.30339        -0.079046      0.019626      0.023400
Cu	      0.02852      0.04153      0.01550         0.020819     -0.158822      0.016310
Cu	      4.06658      0.02948      4.16566        -0.150226     -0.044658     -0.014374
Cu	      6.16026      8.27721     10.42480        -0.023307      0.152642     -0.075952
Cu	      6.09696      2.05938      8.32015        -0.010023      0.046347      0.147580
Cu	      6.12113      6.22022      8.27087         0.050419     -0.127733      0.125310
Ni	      8.13857      6.21497      6.21320        -0.097318     -0.026354      0.014076
Ni	      6.12292      8.24139      6.19556        -0.056276      0.084345     -0.034944
O	      4.07208      6.22488      8.39787         0.149540     -0.027132     -0.022343
O	      6.10793      8.29816      8.13987         0.008562     -0.088728      0.428035
O	      6.09134      6.24427     10.35106         0.097447     -0.000624     -0.199883
O	      8.20619      8.34650     10.44282         0.025650     -0.069384     -0.048205
O	      1.99225      1.98567      2.10153         0.042068      0.230008      0.048995
O	      4.13205      4.21450      1.99897        -0.080113     -0.064495      0.185709
O	      4.16388      2.01938      4.29015         0.177215      0.029234     -0.170519
O	      6.18881      4.04417      4.06232        -0.080805     -0.101650      0.103467
O	      6.11786      2.02489      6.33489         0.091481      0.212822     -0.046625
O	      8.25180      4.29443      6.13662        -0.038934     -0.081637      0.057412
O	      1.92775      4.12509      4.28205        -0.306483     -0.032234     -0.336490
O	      4.04054      6.28088      4.12833        -0.033151      0.307840     -0.089146
O	      3.92253      3.94970      6.21040         0.461276      0.176798      0.025172
O	      6.07824      6.16606      6.34130        -0.041785     -0.126648     -0.092124
O	      6.13293      4.11911      8.44411        -0.030161      0.105207     -0.034402
O	      8.15712      6.18784      8.16790        -0.007725      0.011792      0.200488
O	      2.01641      6.16985      6.32148         0.077580      0.126719     -0.217982
O	      4.17796      8.38565      6.11666        -0.379875     -0.045157     -0.170562
