# total energy = -193.19465017 eV
 
CRYSTAL
PRIMVEC
-0.026789 6.186707 6.225439 
6.232353 -0.035448 6.234203 
4.130184 4.105457 0.001099 
PRIMCOORD
36 1
Li	      0.00811      0.04773      0.05393        -0.089793      0.066773     -0.033200
Li	      8.21611      2.05150      6.26278        -0.081641      0.103227      0.042732
Li	      6.09563      4.14737      2.09641        -0.076165      0.078433     -0.000011
Li	      2.08960      4.11116      2.08601         0.082657     -0.012620     -0.026894
Li	      4.08435      4.08606      4.06825        -0.070338      0.087711     -0.095428
Li	      4.20825      2.03352      6.27261         0.067577     -0.091762      0.047105
Li	      6.27135      4.00220      6.25926         0.135470     -0.037724     -0.040617
Li	      6.27046      4.10105     10.33145         0.048695      0.031278     -0.032500
Li	      8.24475      6.13864     10.34819        -0.042588     -0.055242      0.024460
Ti	      4.03150      6.16302      6.12615        -0.336095     -0.065747     -0.439195
Fe	      8.27910      4.06539      4.22831         0.476818     -0.101755     -0.150926
Cu	      4.07908      2.15834      2.06633         0.062789     -0.169660     -0.080855
Cu	      2.07452      2.08960      4.14247         0.003286     -0.469772     -0.111091
Cu	      2.05797      4.11371      6.21913        -0.055785      0.335947     -0.300155
Cu	      8.29775      8.16724      8.32705         0.142989     -0.056214      0.049417
Cu	      6.27935      6.08233      8.30386         0.163529     -0.234047      0.065132
Cu	      6.21978      2.04790      4.24229        -0.034328      0.074127      0.099448
Cu	      6.21897      1.99247      8.22820        -0.096225      0.021928     -0.053216
O	      4.16045      8.13564      6.36393        -0.155571     -0.145744      0.287177
O	      6.26395      8.10416      8.28271        -0.049823      0.369451     -0.139359
O	      6.06678      6.25834     10.35552         0.267756     -0.130798     -0.252901
O	      8.21344      8.22147     10.30678        -0.069555      0.025820     -0.286642
O	      1.97016      2.06961      2.12727         0.265571      0.057314      0.174259
O	      4.11427      4.17739      2.05895        -0.060088     -0.245144      0.048211
O	      4.12635      2.05949      3.99792         0.220831      0.029718     -0.032269
O	      6.38047      4.05537      4.16546        -0.798046      0.290848     -0.179753
O	      6.22805      2.02040      6.25503        -0.043364      0.089581     -0.116580
O	      8.31224      4.08918      5.99640        -0.013372      0.007817      0.856697
O	      2.04843      4.02855      4.25531         0.006180      0.242929      0.228026
O	      4.18202      6.15440      4.26133        -0.244932     -0.037050      0.467674
O	      4.08326      4.20359      6.31878         0.222607      0.019385      0.343191
O	      6.13062      6.21451      6.24741         0.211356     -0.287966      0.027099
O	      6.16341      4.07123      8.30583        -0.090168     -0.029710     -0.005023
O	      8.29351      6.17904      8.30806         0.087011     -0.114144     -0.052798
O	      2.16419      6.11787      6.21940         0.232326      0.185679      0.087074
O	      4.23268      6.10766      8.36081        -0.289574      0.167134     -0.418289
