# total energy = -190.98465342 eV
 
CRYSTAL
PRIMVEC
0.018583 6.055115 6.193522 
6.215109 -0.008642 6.220816 
4.153852 4.065867 -0.016072 
PRIMCOORD
36 1
Li	      8.30234      8.06312     12.39007         0.010018      0.045421      0.020372
Li	      4.17686      2.02544      2.13476        -0.015681      0.020522     -0.031477
Li	      6.15816      2.06139      4.08816        -0.062030     -0.031636     -0.035121
Li	      8.24352      4.05219      8.32404         0.057896     -0.037764     -0.039361
Li	      6.27940      6.06846      4.17559        -0.028145      0.002916      0.037057
Li	      4.09553      2.05709      6.18030        -0.035609     -0.018779     -0.003946
Li	      6.26548      8.05937      6.19849        -0.001312     -0.008954      0.007836
Li	      8.31385      8.06667      8.26964        -0.013842      0.004389     -0.010394
Li	      6.28158      6.12064      8.21649         0.059829      0.089418      0.084425
Ti	     10.26252      4.07525      6.12525        -0.162846      0.073368     -0.000949
Fe	      6.26040     10.06587      8.27442        -0.124682      0.346556     -0.054043
Ni	      8.32532      6.10122     10.32320        -0.112585      0.067134      0.090633
Ni	      4.12160      0.02754      4.11438        -0.013292      0.021289     -0.086884
Ni	      4.15437      6.05688      2.07148         0.095111     -0.062462     -0.006258
Ni	      4.12484      3.98777      4.16257        -0.025176     -0.063460     -0.085124
Ni	      6.23445      4.02368      6.22902         0.064656     -0.069652      0.038048
Ni	      0.06261      4.02889      4.09294         0.092955     -0.020226     -0.032427
Ni	      4.18431      6.08658      6.21910        -0.057318      0.062231      0.070341
O	      1.90372      1.84876      2.08446         0.162502      0.031938     -0.044438
O	      4.23077      4.09891      2.00998        -0.107908     -0.110887     -0.054593
O	      4.09716      2.05994      4.12418         0.037069     -0.079142      0.031598
O	      6.24667      4.02099      4.11558        -0.045363     -0.016509      0.041439
O	      6.20859      1.94944      6.26477        -0.014807     -0.154891     -0.149120
O	      8.37078      4.05011      6.17359         0.211276      0.004773      0.065195
O	      2.04368      4.17285      4.10640         0.032884     -0.143520      0.052229
O	      4.14538      6.00376      4.16738         0.140858      0.009523      0.049557
O	      4.21466      4.06713      6.10276        -0.130529     -0.124938      0.174176
O	      6.15083      5.99598      6.29353         0.132220      0.123698     -0.038224
O	      6.28125      3.87211      8.31919        -0.039705      0.235337      0.032501
O	      8.47500      6.07454      8.41452        -0.210585     -0.032080     -0.152220
O	      2.04590      6.08001      6.14191        -0.068788      0.012848     -0.025172
O	      4.18295      8.17696      6.09121        -0.017710      0.141271      0.036166
O	      3.99921      6.11930      8.24908         0.328058     -0.042534     -0.035621
O	      6.25107      8.28598      8.23591        -0.011633     -0.392030     -0.002825
O	      6.21743      6.08748     10.37894        -0.004439      0.085532      0.053039
O	      8.49091      8.06486     10.30869        -0.121346      0.031302      0.003587
