# total energy = -136.35343054 eV
 
CRYSTAL
PRIMVEC
0.000512 4.185598 -0.000063 
-4.161689 -0.000596 7.899486 
4.147109 0.000478 3.942190 
PRIMCOORD
24 1
Li	     -1.06281      3.14296      4.93660        -0.019059     -0.002367      0.027660
Li	     -1.03630      3.14128      8.87690         0.023384      0.000616     -0.004659
Li	      1.02731      1.04708      0.98226        -0.015304      0.006026      0.000914
Li	      1.03200      1.05004      4.94478         0.000264     -0.002941     -0.004040
Li	      1.04320      1.04779      8.87620         0.014662      0.000798      0.007766
Li	      3.10176      3.14173      4.94023         0.000386      0.002942     -0.021831
Mn	      0.99573      3.14233      2.96055        -0.006113     -0.000914     -0.013918
Mn	     -1.01936      1.04888     10.85920         0.004941     -0.000173      0.001391
Mn	     -1.02851      1.04893      6.90842         0.032766      0.000188     -0.015490
Ni	      1.04573      3.14184      6.89362        -0.012602     -0.000334      0.004401
Ni	     -3.11511      3.14091      6.92836        -0.017155     -0.000112      0.003105
Ni	     -1.07407      1.04953      2.96332         0.014897     -0.001156     -0.001447
O	     -1.04769      3.14151      6.92191         0.011558     -0.000227      0.004048
O	      3.04245      3.14211      2.95117        -0.063028     -0.000012     -0.008831
O	      1.07280      1.04972      2.95561         0.110423     -0.000421     -0.007247
O	      0.98145      1.04880      6.90674        -0.058116      0.001494      0.011838
O	     -3.12196      1.04813      6.92064        -0.054256     -0.000016      0.002414
O	     -0.97599      3.14247      2.96086         0.026481     -0.001675      0.006011
O	     -1.05377      1.04962      5.03128        -0.005693     -0.001288      0.087970
O	     -1.04657      1.04771      8.88744         0.004147      0.002918      0.009011
O	      1.03115      3.14182      1.05896        -0.008186      0.000379      0.085188
O	      1.03193      3.14305      4.86324        -0.002098     -0.003497     -0.084883
O	      1.02562      3.14107      8.88275         0.016186      0.002286     -0.018473
O	      3.11800      1.04992      4.83424         0.001513     -0.002512     -0.070899
