# total energy = -198.48088525 eV
 
CRYSTAL
PRIMVEC
-0.043442 6.253351 6.164049 
6.095302 -0.007625 6.128686 
4.098018 4.179617 -0.039796 
PRIMCOORD
36 1
Li	      4.05167      2.18557      2.09369         0.121131      0.047204     -0.168661
Li	      4.06875      0.07318      4.10163        -0.034397      0.032093      0.068002
Li	      6.08899      2.09519      4.06231         0.024917      0.020229      0.023933
Li	      0.06704      2.02153      2.04963         0.017806      0.075857     -0.023510
Li	      6.05876      6.27502      4.03457        -0.042874      0.042434      0.056051
Li	      4.05986      4.10231      4.01140        -0.077989      0.006363      0.064759
Li	      4.01831      2.06484      6.05917        -0.094571      0.019749      0.015185
Li	      4.08992      8.33372      4.09068         0.050852     -0.001811      0.086617
Li	      4.07054      6.23759      6.14748         0.031880     -0.011716     -0.003560
Ti	      2.19789      6.28695      4.11180         0.509474     -0.125543      0.059180
Fe	      6.06498      4.11637      6.00587        -0.195597      0.152524      0.226098
Fe	      5.98294      6.27727      8.25506         0.092555     -0.028010     -0.278464
Co	      6.04217      8.26874      6.05736         1.013204      0.259108      0.308900
Cu	      8.15232      8.33087      8.17939         0.023748     -0.022363     -0.135192
Ni	      6.05582      0.05435      6.08402         0.014088     -0.250518     -0.094554
Ni	      2.08303      2.10535     -0.00102         0.183302     -0.068081     -0.168747
Ni	      6.11714      4.20574      2.08309         0.103466      0.100322      0.084937
Ni	      2.08329      4.10520      2.07358        -0.137895     -0.056311      0.014876
O	      2.10301      2.04708      2.01513        -0.143081      0.006291      0.170538
O	      4.10747      4.22105      1.88596         0.069525     -0.018086      0.044868
O	      4.03947      2.09184      4.05387         0.012059      0.014183      0.026749
O	      6.07919      4.19720      4.17255         0.067402     -0.015050     -0.692573
O	      6.11053      2.15452      6.07453        -0.109065     -0.412674      0.100570
O	      8.10413      4.10987      6.18671         0.046677      0.215807     -0.171608
O	      2.02907      4.27400      4.10375        -0.156076      0.021896      0.687749
O	      4.00003      6.27698      4.07329        -0.423412     -0.022974     -0.057121
O	      3.98638      4.13492      6.21933        -0.333477     -0.110030      0.047816
O	      6.05638      6.24049      6.25502        -0.041928      0.650269     -0.018141
O	      6.06429      4.22041      8.02291         0.023841     -0.035618      0.264362
O	      8.01837      6.23843      8.27444         0.103349      0.002732     -0.002753
O	      1.97799      6.27503      6.10187         0.036564     -0.742831      0.015736
O	      4.19923      8.40782      6.10825        -0.174727      0.363834      0.024380
O	      4.04072      6.15176      8.25072        -0.187584     -0.014816      0.001896
O	      6.17502      8.33397      8.09789        -0.383459     -0.029096     -0.769995
O	      6.09934      6.25635     10.18240         0.042399      0.029389      0.220757
O	      8.14250      8.22968     10.20515        -0.052110     -0.094754     -0.029081
