# total energy = -200.31949101 eV
 
CRYSTAL
PRIMVEC
0.032050 6.220007 6.228799 
6.214986 0.031242 6.229568 
4.140797 4.144668 0.023428 
PRIMCOORD
36 1
Li	      8.31555      8.31208     12.37819        -0.017772      0.072575      0.011190
Li	      2.24989      6.17990      8.34654         0.024740      0.023278      0.024297
Li	      4.21030      8.19818      8.34599        -0.041062      0.012673      0.024872
Li	      4.12863      6.16403     10.22838        -0.022227      0.021205     -0.042042
Li	      4.18711      4.15916      4.15736        -0.017371     -0.018497      0.006646
Li	      6.20734      4.12987      6.22725         0.001105     -0.006136     -0.003120
Li	     10.29092      8.27553     10.36798         0.008119      0.019253      0.004012
Li	      8.33994      6.38009     10.37524         0.014235     -0.011165     -0.006129
Li	      8.24630      8.42905      8.41729        -0.018544      0.017255      0.019750
Ti	      6.27218      6.18419     12.35453        -0.097127     -0.231277     -0.083903
Fe	      6.23543      6.12922      4.14932         0.242723      0.198924     -0.139473
Fe	      6.29975      8.31598      6.37040        -0.103094      0.140001     -0.130472
Co	      2.08430      4.13552      2.13311         0.073917     -0.037265      0.031214
Cu	     10.35004      6.28158      8.37307         0.112626     -0.028061     -0.071624
Cu	      4.16732      2.10672      6.22964        -0.142804      0.100378     -0.161919
Ni	      6.22544      2.17743      4.13660        -0.046170      0.097251     -0.167673
Ni	      4.12850      6.25856      6.25142         0.034883     -0.197239      0.005130
Ni	      6.17228      6.22326      8.38743         0.229420     -0.212884      0.032168
O	      8.19050      8.34780     10.40826         0.058634     -0.015786     -0.022998
O	      2.02165      2.21176      2.12468        -0.052262     -0.002682     -0.049495
O	      3.98518      4.24885      2.00493        -0.021445     -0.083808     -0.049445
O	      4.15141      2.08654      4.24254        -0.012712      0.001874     -0.036301
O	      6.23595      4.23779      4.15523        -0.019897     -0.296518      0.006087
O	      6.14062      2.04022      6.18764         0.393497      0.067607      0.434160
O	      8.36953      4.22541      6.44621         0.074338     -0.358267      0.089504
O	      2.11656      4.02497      4.03344         0.036575      0.124743     -0.111368
O	      4.25645      6.21875      4.23832        -0.224446      0.007323     -0.293835
O	      4.08598      4.12065      6.25869         0.159189      0.218717      0.026443
O	      6.27393      6.29906      6.20755        -0.215886     -0.131089      0.168737
O	      6.43807      4.14051      8.31780        -0.062471      0.119397     -0.010483
O	      8.31496      6.09264      8.28504        -0.140210      0.085052      0.217874
O	      2.00449      6.17481      6.25884        -0.151338      0.075257     -0.005103
O	      4.22217      8.38432      6.20825         0.006113      0.222214      0.011437
O	      4.21650      6.23046      8.19889        -0.097290      0.005289      0.104397
O	      6.21090      8.25487      8.31039         0.013417      0.071538      0.051069
O	      6.19937      6.32156     10.48431         0.020600     -0.071131      0.116395
