# total energy = -198.74304400 eV
 
CRYSTAL
PRIMVEC
-0.098449 6.317468 6.312604 
6.199076 -0.007150 6.220815 
4.114476 4.132014 0.013547 
PRIMCOORD
36 1
Li	      4.02364      6.26859      2.23040        -0.070070      0.056696      0.131198
Li	      6.07227      6.31295      4.26344        -0.103946      0.077175      0.046736
Li	      3.98858      4.26372      4.30054        -0.084630      0.119958      0.055349
Li	      8.14378      6.31407      6.30997        -0.047196      0.071001      0.020094
Li	      0.00710      4.13512      4.19679         0.058356     -0.134057      0.016720
Li	      2.08775      6.17355      4.15805         0.106594     -0.079812     -0.017535
Li	      2.08862      4.17089      6.17249         0.040582     -0.049643     -0.073203
Li	      4.12255      6.17653      6.20934         0.036065     -0.082456     -0.114481
Li	      4.09919      4.19165      8.26301        -0.017538     -0.027799     -0.063137
Ti	      6.08660      8.36912     10.46016        -0.047891     -0.075856      0.137676
Fe	      1.98616      8.36329      6.31403         0.017717     -0.068373     -0.164459
Fe	      4.03551      8.35677      8.36226        -0.024098      0.078305     -0.004943
Co	     10.29878      4.14008      6.25980        -0.019740      0.033386     -0.225614
Cu	      2.04986      0.02313      2.07674         0.087855     -0.044927      0.048708
Cu	      4.04078      6.31582     10.45443         0.003681     -0.047009      0.036062
Cu	      2.00798      4.20894      2.17237         0.048769     -0.071396     -0.024672
Ni	      6.04956      4.24536      6.29157         0.074761     -0.088476     -0.154516
Ni	      6.17183      6.21610      8.28239        -0.071870      0.083102     -0.003959
O	      4.11768      4.17650      6.25895        -0.142217     -0.085776      0.090427
O	      8.14901      6.13215      8.37524         0.170838      0.025063     -0.038818
O	      2.10928      2.18040      2.03180        -0.093501     -0.123578      0.173076
O	      4.08790      4.10151      1.95881         0.086867      0.137653      0.006563
O	      4.22805      2.01660      4.09427         0.112117      0.118450     -0.047358
O	      6.24228      4.04010      4.11287        -0.105290      0.059122      0.029210
O	      6.22578      2.01582      6.14875         0.010018     -0.110298     -0.100615
O	      8.31023      4.09662      6.28214         0.134784      0.075506      0.158221
O	      2.02503      4.17485      4.08649        -0.000757      0.004620     -0.088653
O	      4.05234      6.25319      4.22689         0.031203      0.016023      0.020165
O	      6.13643      6.20266      6.29408        -0.023548      0.178198     -0.086213
O	      6.22955      4.20911      8.28535        -0.075559     -0.170250      0.170152
O	      1.80685      6.37895      6.43569        -0.073012     -0.018785     -0.020535
O	      3.98859      8.53385      6.35464         0.062324      0.110065      0.033251
O	      4.04973      6.37219      8.37555        -0.141241     -0.063094     -0.065028
O	      6.07636      8.28440      8.50101         0.055840      0.115229      0.001338
O	      6.04717      6.38149     10.58651         0.089561      0.022360      0.129087
O	      8.07520      8.43169     10.52274        -0.085827     -0.040324     -0.010291
