# total energy = -197.87951682 eV
 
CRYSTAL
PRIMVEC
-0.090677 6.237633 6.270082 
6.181461 0.009316 6.170072 
4.160641 4.132458 -0.033277 
PRIMCOORD
36 1
Li	     -0.01847      6.19273      6.22713        -0.004961     -0.034163      0.048271
Li	      2.01046      8.23518      6.16676         0.024721     -0.020365     -0.037152
Li	      2.02916      6.16405      8.18079        -0.015826     -0.029610      0.048738
Li	      4.11047      6.16509     10.32203        -0.014152     -0.012345     -0.040751
Li	      8.13796      6.32598     10.38953         0.045735      0.021669     -0.037006
Li	      6.11108      8.39518      6.34074         0.000846      0.069704      0.055150
Li	      4.03069      6.25304      6.32673         0.024448      0.014983     -0.040860
Li	      4.04086      4.19767      8.30016         0.022816      0.023123     -0.077927
Li	      6.07231      6.27914      8.31650        -0.030938     -0.003165      0.006157
Ti	      6.19825      6.17881      4.21828        -0.090220     -0.039391     -0.020877
Fe	      8.19994      4.17913      8.16288        -0.025387     -0.165509      0.145794
Fe	      4.06260      4.19033      4.19859        -0.012773      0.031019     -0.135982
Co	      6.17007      4.14860      6.19306         0.008336     -0.063199      0.030058
Ni	      6.19950      8.23078     10.35438         0.039634      0.058916      0.119783
Ni	      0.00954      2.03475      2.00802         0.009862      0.069852      0.054026
Ni	     10.18431      8.38344     10.41766         0.097977     -0.161783     -0.086541
Ni	      4.08380      8.28070      8.22023        -0.157095      0.020968      0.174278
Ni	      4.12509      2.07999      6.22726        -0.046607     -0.023499     -0.003749
O	      2.00766      6.22759      6.23821         0.004996      0.006715     -0.028140
O	      4.00567      6.40314      8.26501        -0.008330     -0.096883     -0.001309
O	      2.09893      2.16756      2.16431         0.035708     -0.252759      0.044578
O	      4.05739      4.08849      2.14277         0.091023     -0.090843     -0.041158
O	      4.04139      2.13894      4.11412        -0.078836     -0.024134     -0.003575
O	      6.12952      4.18939      4.22512        -0.021634      0.177270      0.074676
O	      6.15821      2.22680      6.14364         0.056803      0.063486     -0.158020
O	      8.09355      4.16344      6.22223        -0.078900      0.027892     -0.280188
O	      2.02358      4.03809      4.12592         0.005389     -0.110887      0.168241
O	      4.23928      6.20658      4.04451         0.134778      0.034324      0.174939
O	      4.22165      4.13838      6.14289         0.038391      0.025271      0.141969
O	      6.20221      6.12917      6.10204         0.008409     -0.056774     -0.077420
O	      6.20861      4.09917      8.14420        -0.119481      0.061543     -0.016903
O	      8.31446      6.06942      8.21936        -0.005105      0.389219      0.009756
O	      4.08243      8.31363      6.25320         0.005761      0.010616     -0.133483
O	      6.02017      8.29840      8.40835         0.078461     -0.076397     -0.173223
O	      6.13633      6.20611     10.40810        -0.002883      0.138884      0.036923
O	      8.21399      8.32468     10.24924        -0.020965      0.016252      0.060927
