# total energy = -202.22554786 eV
 
CRYSTAL
PRIMVEC
0.019382 6.320482 6.337110 
6.058193 0.032908 6.323460 
4.055313 4.221061 0.005346 
PRIMCOORD
36 1
Li	      4.09406     10.41896      6.31412         0.023260      0.033721     -0.020769
Li	      4.13457      8.40307      8.32506         0.001849     -0.001090     -0.011717
Li	      6.10109      8.47642     10.48786        -0.009981     -0.022459      0.046988
Li	      6.05886      6.34975      4.31558        -0.000396     -0.001603      0.133248
Li	      6.02366      4.28320      6.30648        -0.007089      0.070898     -0.040433
Li	      4.08174      8.42749      4.38099         0.042236      0.011181      0.012920
Li	      6.06192      8.41793      6.37218         0.001982     -0.105931     -0.063899
Li	      4.10177      6.39747      6.31976         0.067949      0.070502     -0.054753
Li	      6.02919      6.41008      8.39695         0.039533      0.033374     -0.090164
Ti	      6.09615      2.19685      8.38889         0.044876     -0.057183     -0.210616
Fe	      4.04392      0.06127      4.23517         0.155949      0.071487      0.233209
Fe	      2.04448      4.21876      2.12966        -0.056962     -0.002049     -0.102198
Co	      7.90747      6.36925      6.27754         1.750877      0.171997     -0.209785
Co	      7.99086      6.37722     10.67191        -0.092439     -0.094979     -0.008743
Cu	      2.08740      8.41082      6.31621        -0.069406     -0.118902     -0.087641
Cu	      2.06364      6.28662      8.39744        -0.244266      0.069331     -0.000918
Cu	      4.09720      4.18651      4.26870         0.077927     -0.101972     -0.114218
Cu	      4.02480      4.30279      8.39122         0.440022     -0.221016     -0.000572
O	      3.94984      8.41571      6.35209        -0.001807      0.015896      0.015658
O	      4.02420      6.32746      8.59816         0.222738     -0.089236     -0.253626
O	      6.19412      8.55347      8.38795        -0.215890     -0.060480      0.084741
O	      1.96387      2.15773      2.15519         0.042174      0.132168     -0.011667
O	      4.05917      4.29569      2.17704         0.056867     -0.040750     -0.164165
O	      4.09257      2.07676      4.29846        -0.323682      0.122522      0.776612
O	      6.10921      4.25393      4.13171        -0.103300     -0.032777     -0.022142
O	      6.11993      2.11792      6.49464        -0.220377     -0.023530      0.025265
O	      8.09732      4.28721      6.33687        -0.197880      0.654867      0.160886
O	      2.09641      4.26862      4.09541        -0.208863      0.022995      0.011082
O	      3.89546      6.23384      4.10587        -0.072325      0.170282      0.039486
O	      4.07531      4.12036      6.22103        -0.324832     -0.845345      0.450315
O	      6.13383      6.33835      6.35315        -0.381194      0.007824     -0.020306
O	      6.06918      4.10698      8.46121        -0.060095      0.125991      0.063508
O	      8.15607      6.29446      8.38495        -0.527488      0.114772     -0.483345
O	      2.04417      6.35661      6.33468         0.029674     -0.043038      0.103678
O	      6.15224      6.36682     10.53177         0.131045      0.001347     -0.061305
O	      8.12453      8.49233     10.62402        -0.010684     -0.038817     -0.124616
