# total energy = -194.88319910 eV
 
CRYSTAL
PRIMVEC
-0.095488 6.238863 6.305151 
6.125847 -0.015120 6.224282 
4.098419 4.120338 -0.024574 
PRIMCOORD
36 1
Li	     10.14705      6.23482      8.34078         0.007983      0.051780      0.052137
Li	      6.07814      6.24218      4.20413        -0.027454      0.008075     -0.008787
Li	      3.98921      4.20143      4.23422        -0.041815      0.150531      0.078111
Li	      8.11293      6.24201      6.26778        -0.018296      0.007689      0.079401
Li	     -0.03692      4.11924      4.18128        -0.005068     -0.062973      0.008142
Li	      2.03120      6.16419      4.13419         0.030856     -0.052396      0.016537
Li	      4.07285      6.16839      6.22164        -0.039369     -0.062440     -0.028300
Li	      4.06530      4.09985      8.31238         0.020282     -0.024044     -0.062443
Li	      6.12049      6.17323      8.29635         0.039703     -0.002832     -0.035007
Ti	      6.09267      4.08597      2.05456         0.047356     -0.012797     -0.072353
Fe	      1.99263      8.30044      6.27344         0.067815     -0.041158     -0.053221
Fe	      4.03397      6.25971     10.42556        -0.083721     -0.182137      0.066412
Cu	      6.00717      4.20641      6.30120         0.023402      0.005552     -0.004491
Ni	     10.19993      4.13617      6.20887        -0.003156      0.042902     -0.031988
Ni	      3.99771      8.26576      8.36286         0.005519     -0.052021     -0.026390
Ni	      6.05431      8.27546     10.42862         0.059634      0.010397     -0.046426
Ni	      1.99952      4.18742      2.18332         0.078636     -0.091741      0.038657
Ni	      2.02893      4.06776      6.18962        -0.041999      0.083703      0.018910
O	      4.03231      6.21225      4.17219        -0.002774      0.056224     -0.054789
O	      6.04995      6.19200      6.22784        -0.081613     -0.094565     -0.087971
O	      6.16088      4.14585      8.22457        -0.128747     -0.039994      0.039231
O	      8.15857      6.09390      8.37570         0.072083      0.066820      0.089574
O	      2.05036      2.01596      1.99287        -0.113949      0.005118      0.122843
O	      4.13330      4.09190      2.08000         0.068529      0.090024      0.128465
O	      4.12314      1.87474      4.11465        -0.119126      0.287748      0.068589
O	      6.24869      4.10805      4.07940        -0.129784      0.110624     -0.056949
O	      6.23422      2.07758      6.16485        -0.211550      0.110650      0.078596
O	      8.13952      4.07485      6.24547        -0.044064      0.150395      0.069260
O	      1.98149      4.14287      4.18896         0.033076     -0.009347      0.015127
O	      4.05329      4.11275      6.25680        -0.061942     -0.053051     -0.033132
O	      1.92682      6.26966      6.39196         0.068842     -0.084970      0.068878
O	      3.97451      8.34338      6.31260         0.183868     -0.052157     -0.046863
O	      3.86140      6.22690      8.43571        -0.063345     -0.134639     -0.167419
O	      6.03787      8.38359      8.29577         0.107532      0.058995     -0.038913
O	      5.89434      6.25560     10.48262         0.239366     -0.119939     -0.080204
O	      8.09812      8.45530     10.49327         0.063289     -0.124027     -0.103222
