# total energy = -196.19947975 eV
 
CRYSTAL
PRIMVEC
0.001803 6.352666 6.110384 
6.168842 0.004224 6.108401 
4.123773 4.245673 -0.008736 
PRIMCOORD
36 1
Li	      4.14596      6.32324     10.16311        -0.044765      0.080656     -0.003677
Li	      6.17236      8.43101     10.16810        -0.090682      0.075300      0.037697
Li	      8.27425      4.32951      8.15166         0.064948     -0.013933      0.014763
Li	      6.19169      6.37806      4.09564         0.071098     -0.028057      0.042195
Li	      4.00751      4.22729      4.08517         0.007073     -0.046659      0.028666
Li	      8.19422      6.41172      6.14415        -0.042057      0.027800     -0.065702
Li	      8.22533      6.39857     10.15916        -0.016893     -0.043150      0.034009
Li	      2.15751      4.18221      6.08945        -0.035921     -0.105981     -0.018006
Li	      6.27507      6.38770      8.09692        -0.035801      0.029303     -0.065757
Ti	      0.13547      4.22746      4.00596         0.629165     -0.109310      0.096129
Fe	      4.14204      8.39809      8.19610        -0.128966     -0.024761     -0.157449
Fe	      6.19363      4.29811      5.96505         0.118296      0.008903      0.229893
Cu	      6.13450      0.03168      6.09988        -0.015869      0.076325      0.055177
Cu	      8.21439      8.49622     12.17748        -0.115564      0.069079      0.038417
Ni	      6.14084      4.22565      2.08147         0.014615     -0.024320      0.228289
Ni	     10.25594      6.37843      8.16989         0.148907     -0.107783     -0.031757
Ni	      4.12841      6.27242      6.08337         0.033607     -0.037665      0.009119
Ni	      8.20281      8.46732      8.17552        -0.149843     -0.305102      0.234058
O	      1.90545      6.48853      6.15886        -0.174691     -0.071923     -0.146106
O	      2.16061      2.06853      1.96625        -0.055783      0.084623      0.054231
O	      4.11769      4.27753      1.87260        -0.129865      0.007732      0.009128
O	      4.09455      2.12694      3.84877        -0.015634      0.013875      0.431118
O	      6.13073      4.23143      4.13830        -0.000732     -0.022312     -0.372623
O	      6.25931      2.37425      6.14051        -0.112563     -0.225982     -0.086442
O	      8.30900      4.17998      6.10466         0.278901      0.044074      0.012189
O	      1.98173      4.25178      4.11670        -0.544169      0.043316     -0.096097
O	      4.13483      6.49897      4.07791        -0.069533      0.214033     -0.005193
O	      4.17470      4.25089      6.23809        -0.250352     -0.122556     -0.443521
O	      6.19660      6.13455      6.08344         0.091711      0.431760      0.081171
O	      6.19750      4.25996      8.19454        -0.148772      0.087450      0.164333
O	      8.26663      6.55948      8.14641        -0.150663     -0.141556     -0.043401
O	      4.03189      8.30771      6.16867         0.131729     -0.005788     -0.159762
O	      4.03197      6.26098      8.11947         0.079797      0.194919      0.083047
O	      6.02944      8.47739      8.10375         0.498100     -0.026632     -0.026640
O	      6.16755      6.22678     10.36212         0.004307     -0.098449     -0.157893
O	      8.31880      8.48970     10.15457         0.156861      0.072772     -0.003604
