# total energy = -196.25980786 eV
 
CRYSTAL
PRIMVEC
-0.028345 6.309189 6.256276 
6.123441 -0.018151 6.245892 
4.079285 4.195770 -0.008583 
PRIMCOORD
36 1
Li	      6.16092      8.30763     10.44409        -0.010582     -0.033544     -0.022851
Li	      6.05364      2.21898      8.30195        -0.060128      0.047686      0.037787
Li	      8.05229      4.21552      8.36140        -0.064475      0.053866      0.005972
Li	      6.11177      4.24729      6.35874        -0.048401      0.122369      0.025645
Li	      6.10423      4.20609     10.34601         0.001046     -0.007743     -0.055899
Li	      8.08861      6.32427     10.39367        -0.004706      0.013898     -0.068521
Li	      6.07103      8.34455      6.22414         0.053266     -0.060393     -0.016319
Li	      4.12318      6.32695      6.22422         0.128005     -0.071209     -0.058056
Li	      6.15511      6.20025      8.31917         0.015910     -0.053373     -0.026570
Ti	      3.99632      4.31848      4.28673        -0.068201      0.262748      0.328871
Fe	      2.01907      6.29345      8.27871         0.086153     -0.156720      0.148064
Fe	      4.12249      8.36726      8.28970         0.211933     -0.091091      0.216664
Cu	      6.08718      6.28268     12.46985         0.033691      0.017188      0.075499
Cu	      8.16622     10.43560     10.42884        -0.046448     -0.041544     -0.055749
Cu	      6.11061      6.30891      4.18034        -0.286448      0.135461     -0.021727
Ni	      8.11970      2.08257      6.20356        -0.071890      0.090995      0.051206
Ni	      8.16746      6.27340      6.26872         0.013426      0.151745      0.100476
Ni	      8.17011      8.35639      8.33413        -0.119818     -0.027011     -0.111892
O	      6.03221      6.27736     10.50689         0.159681      0.002742     -0.149416
O	      8.11768      8.48608     10.41153        -0.034499     -0.198001      0.041995
O	      2.12132      2.02009      2.11179        -0.125025      0.033274      0.030528
O	      4.11939      4.07533      2.16824         0.006506      0.010053      0.116264
O	      4.04832      2.10169      4.16652         0.136263      0.066603     -0.257417
O	      6.09288      4.26958      4.09823         0.021314     -0.126930     -0.055812
O	      6.04571      1.95702      6.25827         0.322315     -0.295793      0.000359
O	      8.20824      4.15711      6.15566         0.138043     -0.097351      0.219052
O	      2.12883      4.13534      4.13817         0.194382      0.157315      0.034062
O	      4.11312      6.18233      4.19161        -0.157119     -0.253936     -0.016560
O	      4.09187      4.17114      6.15916        -0.012581      0.162682     -0.442098
O	      6.25301      6.28191      6.13729        -0.410032      0.025144     -0.027158
O	      5.97999      4.19289      8.32850         0.357055      0.023749     -0.009763
O	      8.12591      6.41129      8.21773        -0.069700     -0.263041      0.260832
O	      1.93837      6.38115      6.29247        -0.132942     -0.072516     -0.007170
O	      4.01734      8.45093      6.35182         0.051439      0.184719     -0.163140
O	      4.05155      6.29231      8.39347        -0.055324      0.224033     -0.114489
O	      6.12651      8.47054      8.32916        -0.152107      0.063928     -0.012668
