# total energy = -197.65193477 eV
 
CRYSTAL
PRIMVEC
0.000395 6.208383 6.215268 
6.224282 -0.005760 6.221404 
4.156003 4.149510 -0.010302 
PRIMCOORD
36 1
Li	      4.21889      8.24849      8.32566         0.016228     -0.036844      0.038655
Li	      4.12453      6.23741     10.30408        -0.022440      0.028045      0.005933
Li	      6.22936      8.24840     10.26314        -0.003604     -0.059537     -0.028939
Li	      8.27162      4.16217      8.32492        -0.036640     -0.015655     -0.042094
Li	      4.16472      4.12291      4.12295         0.034766     -0.036240      0.017100
Li	      6.19894      8.31126      6.22830        -0.045563      0.024814      0.054590
Li	      4.15603      6.19272      6.28183        -0.007721     -0.010787      0.076073
Li	      4.13885      4.17692      8.29970        -0.051540      0.047132      0.038283
Li	      6.15867      6.23104      8.34060        -0.109040      0.032450      0.007837
Ti	      4.08197      2.17040      6.19118        -0.148754      0.213851     -0.191769
Fe	      2.13655      8.31381      6.19078        -0.051994      0.044948      0.005342
Fe	      6.28772     10.24777      8.37400        -0.025488      0.176886     -0.055981
Cu	     10.37011      6.22003      8.29019         0.066650     -0.095159     -0.105119
Cu	      2.08134      2.10105      4.13821         0.044887      0.103143      0.049323
Cu	      6.22635      4.15284     10.32992        -0.146887      0.095668     -0.014652
Cu	      2.08254      6.17551      4.10335         0.047216      0.013232     -0.064352
Ni	      0.02225      6.17946      6.19909        -0.062935      0.025148     -0.002563
Ni	      6.22476      4.15575      6.21945         0.019418      0.038452     -0.020995
O	      3.94474      6.20463      8.28792         0.259938      0.020540      0.019353
O	      6.31907      6.12741     10.34866        -0.118108      0.082170     -0.129777
O	      8.34994      8.19405     10.42711        -0.042912      0.084376     -0.202458
O	      2.04263      1.96147      2.04350         0.032791      0.032000      0.009138
O	      4.35773      4.19524      2.02992        -0.117723      0.013995      0.078021
O	      4.09244      2.06663      4.27749         0.129397      0.034314      0.235123
O	      6.21231      4.28125      4.14044        -0.028569     -0.099464      0.058294
O	      6.18868      2.06554      6.26910        -0.000333     -0.018063     -0.146451
O	      8.31155      4.11659      6.23854        -0.016400      0.110728      0.023627
O	      2.00132      4.12793      4.13455         0.137031     -0.092239     -0.033518
O	      4.17699      6.28506      4.05210         0.030463     -0.125761      0.136330
O	      4.18064      4.00651      6.22082        -0.119094     -0.226051      0.028410
O	      6.31292      6.19590      6.21378         0.111881      0.118202      0.156486
O	      6.21435      4.05056      8.31844         0.002056      0.054855      0.003397
O	      8.38504      6.17181      8.27557        -0.081323     -0.039311     -0.031737
O	      2.06159      6.29720      6.10911         0.143278     -0.147994      0.020562
O	      4.09396      8.30536      6.12178         0.164387     -0.133315      0.006278
O	      6.19832      8.43819      8.29971        -0.003317     -0.258531      0.002250
