# total energy = -136.33103236 eV
 
CRYSTAL
PRIMVEC
2.070218 2.070155 -0.000008 
2.102071 -2.102051 11.780544 
4.204017 -4.203904 0.000051 
PRIMCOORD
24 1
Li	      5.24264     -3.16953      0.98254        -0.003117     -0.001799     -0.001595
Li	      3.13787     -1.06903      0.98235         0.001719      0.001301      0.000880
Li	      3.11401     -1.04532      4.90927        -0.018096      0.020842      0.000246
Li	      3.11341     -1.04409      8.83580        -0.016200      0.019492      0.005239
Li	      5.26364     -3.19523      4.90958         0.018809     -0.016494      0.002220
Li	      5.26502     -3.19441      8.83619         0.017126     -0.017819     -0.003491
Mn	      5.22522     -1.08488      2.92796        -0.008413      0.006670     -0.085488
Mn	      5.22334     -1.08336      6.87283         0.020649     -0.021233      0.000014
Mn	      3.15509     -3.15445     10.81686        -0.011133      0.010488      0.091103
Ni	      3.12240      1.01711      2.94687         0.004107     -0.002199      0.037978
Ni	      7.32617     -3.18645      6.87288        -0.005695      0.005925     -0.002046
Ni	      5.25703     -5.25603     10.79875         0.001166     -0.003172     -0.040178
O	      5.16167     -3.09170      2.94393        -0.097822      0.097546     -0.007478
O	      3.21747     -1.14763      2.94392         0.097227     -0.096501     -0.012935
O	      3.23073     -1.16097      6.87279         0.106343     -0.106325      0.001961
O	      3.21812     -1.14673     10.80147         0.101315     -0.102830      0.010490
O	      5.14720     -3.07751      6.87287        -0.116841      0.117070     -0.001815
O	      5.16165     -3.09118     10.80112        -0.090536      0.090442      0.011346
O	      3.15504     -3.15444      1.01499        -0.001478     -0.000169      0.236568
O	      1.05302     -1.05251      0.94973        -0.000015      0.000101     -0.238679
O	      3.12155      1.01697      4.91361         0.001720     -0.000179     -0.043696
O	      5.25620     -5.25601      8.83200        -0.000140     -0.000480      0.043110
O	      3.15416     -3.15404      4.90052         0.003517     -0.004905      0.049494
O	      5.22416     -1.08385      8.84503        -0.004210      0.004227     -0.053245
