# total energy = -197.16553880 eV
 
CRYSTAL
PRIMVEC
0.068170 6.273011 6.094996 
6.395730 0.063675 6.098807 
4.294302 4.214771 0.012664 
PRIMCOORD
36 1
Li	      4.30430      4.17302      0.06671        -0.007570     -0.108061     -0.019726
Li	      2.17460      2.09500      0.06602         0.124684      0.003870     -0.074148
Li	      8.52043      4.24838      8.02109        -0.006053     -0.039051     -0.033208
Li	      6.40330      6.34963      4.13515        -0.001476      0.033137      0.056340
Li	      8.54137      6.29694      6.18117        -0.092136     -0.044429      0.041896
Li	      6.48071      4.28075      6.17789         0.051987      0.069882     -0.111047
Li	      4.39696      8.35447      4.12825         0.057811     -0.028491      0.072572
Li	      6.41098      8.40359      6.14280        -0.158378     -0.051201     -0.053857
Li	      4.34548      6.39467      6.13247         0.088809      0.140392      0.008344
Ti	      4.21429      4.29059      4.20430        -0.401389      0.095611      0.492085
Fe	      8.55780      4.27182      4.18394        -0.217018     -0.196950      0.328456
Fe	      6.42634      2.12894      4.18263         0.033447      0.248670      0.080125
Cu	      2.19311      6.30245      8.04924         0.014706      0.123965     -0.163429
Cu	      6.44209      2.17545      8.04986         0.048732     -0.013574     -0.102986
Cu	      4.33092      4.21185      8.07223         0.071702      0.032511     -0.140756
Cu	      6.48555      6.27111      8.05102        -0.010164      0.035295      0.039503
Cu	      4.19772      2.17829      1.93976         0.084438     -0.087846      0.084132
Cu	      2.20542      6.27931      4.14709         0.062319      0.111036      0.201712
O	      2.21184      6.29443      6.11103        -0.043220     -0.077965     -0.158729
O	      4.25203      6.23404      8.20479         0.129085      0.195236     -0.208526
O	      6.57334      8.49843      8.17541        -0.090413     -0.232476     -0.179916
O	      2.07883      2.00089      2.02740         0.211806      0.183352      0.037916
O	      4.38840      4.27291      2.08031        -0.163450     -0.215955      0.060690
O	      4.32060      2.19280      3.92404         0.029722      0.008622     -0.268011
O	      6.41423      4.16980      3.98965        -0.037691     -0.045172      0.186108
O	      6.40032      2.14945      6.03707        -0.056264     -0.053398      0.307785
O	      8.56123      4.27181      6.00727         0.031086      0.019053     -0.122733
O	      2.30528      4.30799      4.04922         0.387445     -0.269935     -0.043573
O	      4.35016      6.19810      4.01451        -0.006975      0.016508     -0.052621
O	      4.33384      4.21034      6.03017        -0.013631      0.013960     -0.599543
O	      6.46505      6.33051      6.21436         0.040711     -0.066169      0.199741
O	      6.34037      4.18437      8.13938         0.063035      0.175946      0.035801
O	      8.66342      6.44305      8.19620        -0.126056     -0.130200     -0.056694
O	      4.34445      8.39893      6.19276        -0.071759      0.098599      0.268535
O	      6.38377      6.38769     10.00558         0.061859     -0.149601     -0.204058
O	      8.53851      8.38690     10.11582        -0.089740      0.204830      0.091820
