# total energy = -197.12247994 eV
 
CRYSTAL
PRIMVEC
-0.005122 6.210985 6.117422 
6.180397 -0.001603 6.114009 
4.158528 4.176623 -0.038244 
PRIMCOORD
36 1
Li	      4.15176      4.17050     -0.02340        -0.023325     -0.021767     -0.012143
Li	      6.22342     10.36606      8.10678        -0.039155     -0.000209     -0.022549
Li	      4.13058      6.18372     10.17634         0.036420     -0.028455     -0.003231
Li	      6.14412      2.08461      8.11955        -0.014571     -0.022123      0.010434
Li	      4.10562      4.18292      4.06703         0.005061     -0.005669     -0.006386
Li	      8.27858      6.24844      6.11439         0.035070      0.028980      0.022277
Li	      6.17908      4.14966     10.17284        -0.028090      0.007320     -0.003437
Li	      6.21559      8.31614      6.13014         0.055564      0.053290     -0.002034
Li	      4.13794      4.13827      8.13721         0.031721      0.016387      0.027748
Ti	      6.11178      2.14553      4.02021         0.047215     -0.043707     -0.029187
Fe	      2.02386      2.04069      0.02695        -0.039393     -0.101669     -0.104133
Fe	      2.11250      6.16532      4.04587         0.019353      0.061375      0.071232
Ni	      4.10322      8.28624      8.11133         0.048413      0.002733      0.037374
Ni	      2.06485      4.11893      2.01620         0.006714      0.114208      0.007732
Ni	      6.21736      6.23447      4.04061        -0.055781      0.028995     -0.069619
Ni	      6.21423      4.20717      6.12208        -0.005877     -0.133220     -0.040095
Ni	      4.19406      6.24649      6.10726        -0.195736     -0.013013     -0.084961
Ni	      6.24654      6.27239      8.10085         0.078307      0.035056      0.046017
O	      2.01141      1.98746      2.02148        -0.080323     -0.046907      0.057953
O	      3.95212      3.95593      1.97745         0.142628      0.127531      0.016189
O	      4.17036      2.04040      3.97338         0.147068      0.003127      0.104055
O	      6.21790      4.10975      4.16323        -0.002349     -0.119597     -0.124906
O	      6.17962      2.07004      6.02146        -0.065219     -0.039125     -0.070954
O	      8.14338      4.06289      6.19819         0.117983      0.068306     -0.134150
O	      2.04132      4.15478      3.93205         0.002626     -0.079215      0.167660
O	      4.10397      6.24592      4.17771         0.176391      0.008829     -0.120787
O	      4.33334      4.35615      6.16138        -0.162095     -0.135396     -0.028030
O	      6.27315      6.29111      6.05256         0.067839      0.092314      0.032964
O	      6.33193      4.22934      8.03631        -0.124747     -0.073570      0.122367
O	      8.31250      6.23496      8.26723         0.008610      0.062397     -0.419435
O	      2.06525      6.21136      5.97091        -0.058466     -0.004582      0.381358
O	      4.04531      8.18175      6.17075         0.075964      0.101223     -0.086648
O	      4.21704      6.37877      8.02200        -0.072631     -0.141532      0.144822
O	      6.20988      8.37237      8.21768         0.072407      0.062443      0.122877
O	      6.27139      6.32517     10.15349        -0.202891      0.047160      0.045855
O	      8.17234      8.27230     10.23469        -0.004707      0.088082     -0.056231
