# total energy = -215.52392719 eV
 
CRYSTAL
PRIMVEC
0.013473 6.237021 6.124687 
6.220929 -0.020312 6.158779 
4.144540 4.177932 -0.010809 
PRIMCOORD
36 1
Li	      0.09842      6.16112      6.13174         0.018770      0.008952     -0.026013
Li	      2.21092      8.23737      6.10024         0.021080     -0.017296     -0.041331
Li	      4.15314      8.35110      8.01540         0.100898     -0.000631      0.086501
Li	      4.10035      4.21968      4.14300         0.018730      0.010400      0.013328
Li	      6.11190      4.15373      6.19885         0.051751     -0.019691     -0.088881
Li	      4.20415      8.29143      4.17097         0.066428     -0.010311      0.029519
Li	      2.15269      6.20978      4.20384         0.023915     -0.082650      0.058675
Li	      2.03341      4.17243      6.07539        -0.042640      0.052683     -0.029448
Li	      4.10279      6.29731      6.09498        -0.002064     -0.013705     -0.041493
Ti	      8.34292      4.13482      4.21880         0.115432      0.190631      0.178554
Cr	      2.05416      6.23545      8.07754        -0.107026      0.065194     -0.142893
Cr	      2.09256      4.16238      2.03056        -0.041393      0.114138      0.020844
Cr	      6.17205      6.29939      4.12668         0.004735      0.034393      0.042718
Co	      6.20471      2.10992      4.16349        -0.131411     -0.005587     -0.041227
Co	      8.30699      8.31254      8.19689         0.508506     -0.504653     -1.135593
Cu	      6.17753      6.24420      8.07654        -0.085481      0.034884      0.084154
Ni	      6.21834      2.06162      8.19261        -0.007000     -0.123466     -0.063908
Ni	      4.14451      2.11765      6.14993        -0.015711     -0.294759     -0.137273
O	      4.17617      8.31423      6.11198         0.005592      0.041786     -0.040436
O	      2.06363      2.09826      2.10527         0.005559     -0.098804     -0.022047
O	      4.14039      4.24719      2.01833         0.101831     -0.072077     -0.003435
O	      4.09467      1.96398      4.06165        -0.006076     -0.128560     -0.060961
O	      6.30769      4.24094      4.01271         0.065498      0.027448      0.043953
O	      6.09677      2.09085      6.08068         0.355348      0.017603      0.149069
O	      8.30005      4.19700      6.11533        -0.031697     -0.087351     -0.186212
O	      2.12191      4.05691      3.97676        -0.065639      0.011089      0.021455
O	      4.27995      6.22030      4.06292        -0.129824      0.075673     -0.019469
O	      4.13327      4.05777      6.32781         0.048039      0.356826     -0.052941
O	      6.32499      6.26190      6.11945        -0.277516     -0.086175     -0.010100
O	      6.22013      4.05535      8.19870         0.722059      0.308874      0.088524
O	      8.28554      6.24231      8.20986        -0.103607     -0.905758      0.235487
O	      2.08088      6.24049      6.20872         0.018039      0.025690     -0.019324
O	      4.09152      6.06098      8.23000         0.123476      1.278759      0.175920
O	      6.36264      8.44521      8.29477        -1.320537     -0.128147      0.207363
O	      6.09866      6.30062     10.05973        -0.125249     -0.121113      0.204782
O	      8.25991      8.42602     10.15824         0.117189      0.045712      0.522140
