# total energy = -217.57654088 eV
 
CRYSTAL
PRIMVEC
0.016266 6.178058 6.186938 
6.332128 0.028857 6.173984 
4.251486 4.140014 -0.010853 
PRIMCOORD
36 1
Li	      4.30096      8.26830      8.23782         0.012656      0.048662     -0.021806
Li	      6.37058      8.21916     10.25163         0.019145     -0.009127      0.004908
Li	      2.09580      4.17901      2.14938        -0.048883     -0.058896     -0.051972
Li	      4.11820      4.15150      4.15515        -0.015010     -0.057070     -0.024066
Li	      0.04105      4.12108      4.13317        -0.031727      0.038832      0.003317
Li	      2.13906      4.10881      6.15107        -0.007424      0.038329      0.028288
Li	      4.22792      6.24951      6.12434        -0.018480      0.054724      0.028725
Li	      8.45085      8.25764      8.28483         0.022107      0.038849      0.030445
Li	      6.39349      6.28195      8.26360        -0.025545      0.023664      0.010275
Ti	      6.21168      4.21283      6.23100        -0.123860     -0.003781      0.348948
Cr	      6.46189     10.21793      8.21229         0.278725     -0.034642     -0.044761
Cr	     10.56718      6.22365      8.22695         0.097650     -0.052282      0.087782
Cr	      2.09020      2.13267      4.12061         0.164516      0.048034     -0.092628
Co	      0.05710      6.13564      6.14547         0.136615     -0.035413      0.358480
Co	      2.21361      8.24648      6.12046         0.151913     -0.014760      0.111070
Cu	      4.26036      6.15956     10.27684         0.141723      0.003347      0.011771
Cu	      8.42792      6.25068      6.20637        -0.031698     -0.144576     -0.066862
Ni	      2.19115      6.12107      4.08090        -0.229345      0.341869      0.208351
O	      4.08652      6.23805      8.32554        -0.387579     -0.031936     -0.177549
O	      2.01911      1.95841      2.10607        -0.013245     -0.007726      0.065985
O	      4.41591      4.19507      1.88304         0.069511     -0.000401      0.064239
O	      4.12273      1.99923      4.24691        -0.226107      0.197224     -0.124907
O	      6.40878      4.18687      4.09423        -0.186268      0.082499      0.022821
O	      6.47942      2.05654      6.21067         0.018984     -0.034439     -0.062077
O	      8.38154      4.01466      6.06703        -0.096033      0.204410      0.207721
O	      2.13698      4.10315      4.12920        -0.001003     -0.200347      0.022411
O	      4.29575      6.20002      4.02402         0.070376     -0.027402     -0.047638
O	      4.38341      4.13745      6.14905         0.266124      0.024819      0.008935
O	      6.31977      6.11041      6.14345        -0.088250     -0.074775      0.003339
O	      6.36643      4.10568      8.10092        -0.031907      0.005362     -0.370422
O	      8.56307      6.20172      8.16795         0.077704      0.002180      0.109310
O	      2.22611      6.30421      6.22752        -0.118946     -0.189772     -0.042719
O	      4.11869      8.40929      6.23904        -0.099352      0.090764     -0.045797
O	      6.34034      8.41961      8.20724         0.053428      0.063834     -0.011115
O	      6.30641      6.20259     10.47708         0.181876     -0.005403     -0.415098
O	      8.46666      8.27075     10.34867         0.017610     -0.324654     -0.137704
