# total energy = -216.92413764 eV
 
CRYSTAL
PRIMVEC
0.009282 6.317993 6.220927 
6.086679 0.029557 6.201034 
4.074343 4.215705 0.002915 
PRIMCOORD
36 1
Li	      4.08923     10.52609      6.22946        -0.027999      0.061772      0.046441
Li	      2.07198      0.07996      2.05048         0.028069     -0.074815     -0.015616
Li	      3.96487      2.14280      2.13825         0.056209      0.105716     -0.041890
Li	      4.09042      6.31218      2.08814        -0.075490     -0.017453     -0.124732
Li	      2.02900      2.09650      4.07296         0.024093      0.006603      0.033003
Li	      4.06804      2.16476      6.20049         0.062328     -0.031447      0.035522
Li	      6.09134      4.23372     10.30627         0.041738      0.003408     -0.067521
Li	      4.06880      6.27032      6.23863         0.040093      0.019022      0.085281
Li	      6.06336      6.28749      8.29721         0.044091     -0.091102     -0.018190
Ti	      6.00293      8.29663      6.29097        -0.077130     -0.440139      0.128481
Cr	      2.09311      8.38960      6.24916        -0.129183      0.004317     -0.057198
Cr	      6.09008      2.15367      4.10497         0.099509     -0.105972     -0.071741
Cr	      2.07794      6.28225      4.11751        -0.057808     -0.017858      0.007410
Co	      2.06083      4.15794      2.04262        -0.847512     -0.118805     -0.010633
Co	      4.11214      4.24588      8.30724        -0.104832      0.055786      0.079163
Cu	      4.11804      6.41569     10.31206         0.028863      0.069962      0.145506
Cu	      4.10599      4.23858      4.09275        -0.003078     -0.048465     -0.222872
Cu	      6.06932      4.26597      6.21012        -0.156146      0.108642      0.315416
O	      3.93612      6.17819      4.16199        -0.009023      0.181007     -0.005569
O	      4.08420      6.14144      8.41870        -0.070505     -0.082613     -0.133475
O	      2.00213      2.13996      1.97265         0.175650      0.883096      0.086371
O	      3.84821      4.26845      2.01747         0.166485     -0.169616      0.113628
O	      4.16257      2.31447      4.12534        -0.148998     -0.127559     -0.041146
O	      6.16110      4.19246      4.21353         0.102459      0.171342     -0.328611
O	      6.19607      2.19169      6.06870        -0.032817     -0.270815      0.112933
O	      8.08483      4.12916      6.14384         0.292292      0.088595      0.544187
O	      1.98321      4.28718      4.23544         0.066999      0.010730     -0.501455
O	      4.03420      4.25215      6.41414        -0.230176      0.036684     -0.088065
O	      6.10676      6.47113      6.18982        -0.011160      0.509073      0.018384
O	      6.10813      4.24215      8.19111         0.320831     -0.031485      0.022012
O	      8.11202      6.41449      8.42337         0.034968     -0.524213      0.042775
O	      2.02020      6.33538      6.09277         0.077737     -0.072144      0.042283
O	      4.12813      8.40636      6.27647         0.200183     -0.033323     -0.028284
O	      6.22501      8.47812      8.26218         0.018209      0.031703     -0.153521
O	      6.16193      6.46459     10.35612         0.072719     -0.039139      0.047140
O	      8.15836      8.28854     10.32837         0.028334     -0.050494      0.004583
