# total energy = -217.32345075 eV
 
CRYSTAL
PRIMVEC
0.010268 6.125211 6.214650 
6.190189 0.044899 6.181038 
4.162027 4.096362 -0.005591 
PRIMCOORD
36 1
Li	      2.04812      8.09471      6.19690         0.028504     -0.067332     -0.001502
Li	      2.04414      0.08158      2.01874         0.015004     -0.007650     -0.074171
Li	      4.18680      6.13460      2.19505        -0.054229      0.047389     -0.042143
Li	      6.08916      6.15432      4.11667        -0.011945      0.098329      0.032980
Li	      4.17743      2.09436      6.20608        -0.062390      0.060144      0.054493
Li	      4.10761      8.01734      4.18452         0.025115     -0.081614     -0.015168
Li	      2.18062      6.18584      4.19094         0.066047     -0.027649     -0.003267
Li	      4.10428      6.14927      6.07630         0.033740     -0.014311     -0.041594
Li	      6.22626      6.15236      8.25440        -0.005659      0.006123     -0.074903
Ti	      8.18835      4.23204      8.33421        -0.252313      0.454410      0.148205
Cr	      4.14912      8.14998      8.25137        -0.038143     -0.125790     -0.161857
Cr	      8.29044      4.12242      4.16804         0.030816     -0.019780      0.015853
Cr	      2.09601      4.05389      6.16940        -0.128079     -0.066122      0.028550
Co	      6.20286      0.06508      6.17444         0.131254     -0.057789      0.042072
Co	      6.24803      8.18200     10.34233         0.249519     -0.084809      0.374954
Ni	      6.18338      4.15493      6.18667        -0.044796      0.108558      0.171362
Ni	      4.18909      4.18274      4.14912        -0.068243     -0.105542      0.027163
Ni	      8.33333      8.15598      8.27199         0.041131     -0.000977     -0.125932
O	      2.25959      2.14314      2.04708         0.050073     -0.006148      0.016951
O	      4.10525      4.01363      1.96807        -0.003023     -0.072437      0.004596
O	      4.28668      2.06426      4.02381        -0.470110     -0.006238     -0.254262
O	      6.26018      3.99926      4.17886         0.070503     -0.060524     -0.225549
O	      6.22282      2.01178      6.01589        -0.052003     -0.155428      0.809167
O	      8.33980      4.14804      6.20699         0.123298     -0.017249      0.010508
O	      2.11658      4.08126      4.09577        -0.133016      0.035111     -0.228198
O	      4.17293      6.10964      4.13501         0.035931      0.212690     -0.051812
O	      4.06588      4.12883      6.24970         0.036592     -0.051808     -0.016691
O	      6.18246      6.27500      6.15728         0.098035     -0.075494     -0.024834
O	      6.28266      4.11591      8.20097         0.322978      0.018734      0.181985
O	      8.28922      6.09393      8.25390        -0.026999     -0.481482      0.037156
O	      1.93320      6.00094      6.18471        -0.061459      0.168118      0.063719
O	      4.25687      8.27795      6.26594        -0.161466      0.003317      0.079853
O	      4.13934      6.25801      8.38424        -0.003606      0.176283      0.000447
O	      6.13873      8.19852      8.24437        -0.178969      0.039279     -0.609619
O	      6.13182      6.24769     10.46636        -0.005892      0.119958     -0.050102
O	      8.18648      8.26856     10.27180         0.403801      0.037729     -0.098409
