# total energy = -217.49472632 eV
 
CRYSTAL
PRIMVEC
-0.035082 6.286206 6.115395 
6.262949 -0.004252 6.084241 
4.168750 4.163763 0.003754 
PRIMCOORD
36 1
Li	      4.16919      4.21466      0.10072         0.000551      0.001371      0.071413
Li	      2.02778      2.09155      0.11194         0.064963     -0.085135      0.191248
Li	      2.10109      6.20292      8.01969         0.009763      0.253354      0.079163
Li	      4.22445      8.31062      8.03644        -0.212692     -0.015611      0.032739
Li	      6.27294      8.31020     10.07658        -0.010073     -0.002622      0.010629
Li	      6.20635      2.14834      8.04263         0.184892     -0.062680      0.059754
Li	      8.28921      4.21985      8.02249         0.033251     -0.206399      0.053810
Li	      8.26673      8.35240      8.11324        -0.003177      0.064264      0.058580
Li	      6.22974      6.32037      8.10584        -0.005057      0.002834      0.035056
Ti	      4.22792      4.06171      3.95392        -0.066677      0.215088     -1.383050
Cr	      4.15254      6.26477     10.12109         0.037274      0.060079     -0.280439
Cr	      6.23323      4.18545     10.09371        -0.029843     -0.051860      0.262704
Cr	      8.26712      6.32892     10.15286        -0.059807      0.091869      0.034647
Co	      2.07114      2.09198      3.92110         0.039681     -0.009994      0.912869
Co	      8.36639      6.24927      6.22473        -0.237580     -0.040656     -0.421103
Co	      6.26551      4.13949      6.15487         0.014152     -0.126511      0.941133
Cu	      6.18022      8.43612      6.24569         0.078780     -0.248269     -0.283711
Cu	      4.13854      6.27279      6.23865        -0.354612      0.469341      0.187306
O	      6.22722      8.36959      8.09239         0.013435     -0.013057     -0.254325
O	      2.04937      2.11222      2.17575        -0.008138     -0.014328     -0.893030
O	      4.16438      4.19094      2.17341         0.038972     -0.108792      0.812727
O	      4.15168      2.11339      4.07006         0.251482     -0.029231      0.953529
O	      6.22622      4.17844      4.18131        -0.052471     -0.052414     -0.605973
O	      6.08692      2.22564      6.09508        -0.032004     -0.021666     -0.019236
O	      8.22204      4.21091      6.00366         0.458987      0.723587      0.187259
O	      2.13290      4.22200      4.18248        -0.059356      0.290578      0.243683
O	      4.10792      6.22803      4.18142        -0.200937     -0.044026     -0.038402
O	      4.30204      4.19571      6.05719        -0.382808     -0.752499      0.269099
O	      6.41463      6.13028      5.98527         0.077504      0.002302      0.089734
O	      6.28661      4.16654      8.11759        -0.004611      0.095784     -0.130920
O	      8.31972      6.24721      8.21507         0.104006     -0.133527     -1.237342
O	      1.99598      6.29329      6.02160         0.215580      0.069498     -0.009862
O	      4.17890      8.27425      6.00587         0.039951     -0.259910      0.070160
O	      4.10838      6.31688      8.18021         0.071794     -0.115283      0.080855
O	      6.20155      6.16769     10.19762         0.024655      0.097267     -0.062187
O	      8.41610      8.37856     10.18665        -0.039830     -0.042745     -0.018513
