# total energy = -136.81370820 eV
 
CRYSTAL
PRIMVEC
-4.128174 -0.017115 3.945988 
4.128245 0.017095 3.946034 
2.089899 6.306832 -0.000012 
PRIMCOORD
24 1
Li	     -1.01659      3.15814      4.94642        -0.008098      0.007289     -0.010984
Li	      1.03635      1.05440      0.98741         0.002499      0.000316      0.001222
Li	      1.03672      1.05440      4.93341         0.001288      0.000062      0.001139
Li	      1.05260      5.23956      4.94624         0.002614     -0.008066     -0.012643
Li	      3.10980      3.17558      4.92017        -0.000410      0.007677      0.012900
Li	      1.05290      5.23919      0.97408         0.000171     -0.007727      0.013954
Mn	      1.07335      3.15382      2.96015        -0.025975     -0.016658     -0.000895
Mn	     -1.02753      1.04557      2.96026        -0.000246     -0.001435      0.001573
Mn	     -1.03841      5.24399      2.96014         0.026278      0.018240     -0.000203
Ni	      1.01876      3.15145      6.90633         0.027455     -0.025630     -0.000573
Ni	      3.10080      1.06263      2.96060        -0.000048     -0.001336     -0.005242
Ni	      3.14446      5.26379      2.96004        -0.026338      0.025746      0.001155
O	      3.03538      3.16557      2.96029        -0.107037      0.000942      0.002098
O	      0.98632      1.12284      2.96031        -0.059050      0.097390      0.001974
O	      1.08688      0.98521      6.90637         0.060275     -0.093047      0.000574
O	      1.12784      5.24935      6.90622         0.108370     -0.001731     -0.000684
O	     -0.95347      3.26037      2.96024         0.076343      0.054776     -0.003191
O	      0.98846      5.13754      2.96010        -0.076732     -0.053036      0.000905
O	     -1.01266      5.25584      4.86934        -0.003933     -0.001291     -0.128785
O	      1.04775      3.14184      1.05108         0.005095      0.002241      0.130258
O	      1.04764      3.14197      4.86947         0.003257      0.004216     -0.129787
O	     -1.02745      1.04574      4.84834        -0.002824     -0.002769     -0.088131
O	      3.11551      5.27301      4.99706        -0.003209     -0.005106      0.127208
O	      3.10070      1.06281      5.01842         0.000256     -0.001065      0.086159
