# total energy = -223.54943002 eV
 
CRYSTAL
PRIMVEC
0.058714 6.301855 6.214010 
6.222185 0.052089 6.220074 
4.170389 4.228783 0.012058 
PRIMCOORD
36 1
Li	      4.28689     10.45441      6.22599        -0.074453     -0.031537      0.070986
Li	      4.26848      8.45476      8.25820        -0.117783      0.014413      0.091117
Li	      4.20941      6.34924     10.28006        -0.009749      0.115582      0.000612
Li	      6.29062      8.38943     10.31754        -0.014413     -0.111303     -0.030618
Li	      4.18266      6.34699      2.12035         0.035606     -0.012640     -0.019920
Li	     10.41068      8.46620     10.36716         0.061041     -0.027457      0.030574
Li	      8.32048      6.35172     10.30937        -0.066888      0.022996     -0.087344
Li	      6.14985      8.53134      6.25024        -0.010870     -0.070230     -0.017665
Li	      8.33474      8.47919      8.39366        -0.062190     -0.103072     -0.053056
Ti	      8.35573      8.46786     12.27349         0.087157      0.105284      0.020157
Cr	      4.19827      4.24227      4.13439        -0.039001     -0.071775     -0.096005
Cr	      4.18218      6.34014      6.24449         0.175845      0.110287     -0.087258
Cr	      6.23617      6.37805      8.43845         0.415628      0.201215      0.265642
Co	      2.12923      4.23769      2.10914        -0.428294     -0.153712     -0.226710
Co	      2.12538      2.14392      4.05857        -0.031654      0.189225      1.036824
Co	      4.24700      2.12679      6.23415        -0.062446     -0.071382      0.068493
Co	      6.26499      4.25089      6.22286         0.081733      0.054080      0.010660
Cu	      6.31234     10.45564      8.34502         0.164874      0.103146     -0.047690
O	      2.09061      2.34380      2.15646         0.063889      0.153356      0.171238
O	      4.26570      4.24502      2.15114        -0.623767     -0.059928      0.019172
O	      4.10566      2.22253      4.22504        -0.765527      0.033937     -0.198038
O	      6.22850      4.31940      4.18453         0.082436      0.789299     -0.052993
O	      6.31129      2.29955      6.26711         0.001157      0.086162     -0.155729
O	      8.22749      4.19385      6.32586         0.019518      0.014053      0.267551
O	      2.19486      4.19243      4.08075        -0.136204     -0.922209     -0.335469
O	      4.25960      6.27202      4.23038         0.694559      0.078871     -0.221320
O	      4.31908      4.30323      6.16041         0.100338     -0.009258     -0.010906
O	      6.21825      6.21189      6.20859         0.004470     -0.147298     -0.410600
O	      6.25261      4.39144      8.13178         0.789756     -0.029509      0.118027
O	      8.25134      6.20566      8.28845        -0.094046      0.133163     -0.096388
O	      2.15199      6.43139      6.33364         0.053900      0.030061     -0.129920
O	      4.08174      8.37506      6.20789        -0.170367     -0.078777     -0.049770
O	      4.20163      6.32765      8.24557        -0.060477     -0.125643     -0.052977
O	      6.31001      8.19721      8.20624         0.010864     -0.235685      0.024080
O	      6.24959      6.29508     10.22385        -0.085023      0.037364     -0.105185
O	      8.32982      8.44410     10.47986         0.010380     -0.011078      0.290428
