# total energy = -222.80727705 eV
 
CRYSTAL
PRIMVEC
0.018783 6.190277 6.183031 
6.119652 0.024732 6.177510 
4.114057 4.158010 -0.019518 
PRIMCOORD
36 1
Li	      2.17995      8.25315      6.26112         0.112386     -0.045583      0.041845
Li	      2.10697      6.18231      8.19988         0.084072     -0.002619     -0.165399
Li	      4.13173      8.27953      8.15548         0.011710     -0.091783     -0.183579
Li	      6.18192      8.25632     10.17383         0.078897     -0.165712     -0.057625
Li	      2.02720      4.04417      2.06052        -0.143510      0.022063     -0.032135
Li	      6.12761      4.17255      6.19866         0.036826     -0.033654      0.215951
Li	      4.12056      8.29428      4.14332        -0.028953      0.133977     -0.005394
Li	      4.11855      6.30238      6.28263        -0.022443      0.190591      0.091732
Li	      6.04574      6.20480      8.25244         0.035201     -0.059413      0.059358
Ti	      8.19769      6.19333      6.20093         0.124213     -0.453789      0.639088
Cr	      8.20193     10.31304     10.23382         0.383699     -0.450090      0.010891
Cr	      0.06223      2.09957      2.06531        -0.140613      0.658867     -0.527071
Cr	      8.14986      6.23443     10.31092        -0.418661      0.198250      0.130082
Co	      2.02676      2.09443      4.10977        -0.106465      0.267983      0.042724
Co	      4.18715      4.12876      4.03443        -0.206190      0.524657     -0.867883
Co	      6.15521      8.31211      6.18754        -0.096449      0.017996      0.133433
Co	      4.08007      4.15594      8.21796         0.131058      0.044210      0.168790
Ni	      4.15086     10.30499      6.20113         0.039458     -0.086498     -0.215940
O	      2.00105      2.10136      2.18575         0.232279     -0.047704      0.192000
O	      4.10362      4.27113      2.05871         0.009076     -0.774132      1.771771
O	      3.97325      2.00231      4.18257         0.161180      0.763360     -0.129448
O	      6.15379      4.33417      4.13765        -0.328895     -0.120425     -0.014338
O	      6.01800      2.09022      6.20755        -0.261415      0.190630     -0.005834
O	      8.16412      4.26075      6.11780        -0.209031      0.323936     -0.102571
O	      2.13354      4.13233      4.21381         0.354720     -0.138128      0.003457
O	      4.14227      6.24724      4.03402         0.112992     -0.897842      0.341962
O	      4.01362      4.07076      6.21111         0.134361     -0.028758     -0.811884
O	      6.21162      6.35077      6.05964         0.082958     -0.091664     -0.122865
O	      6.01865      4.06121      8.22324        -0.025437      0.430336     -0.055620
O	      8.20814      6.28529      8.20423        -0.003608     -0.033858     -0.196424
O	      2.07442      6.10663      6.08491         0.245551      0.033008     -0.068542
O	      4.26257      8.32999      6.20462        -0.149165     -0.412435     -0.005424
O	      4.10947      6.05882      8.31048        -0.075130     -0.028048      0.092283
O	      6.27383      8.28593      8.09051        -0.037108      0.066551     -0.000263
O	      6.14365      6.22917     10.36059        -0.066390      0.064526     -0.456849
O	      8.16132      8.27055     10.14583        -0.051176      0.031194      0.089721
