# total energy = -223.78486785 eV
 
CRYSTAL
PRIMVEC
0.007876 6.332386 6.199422 
6.228264 0.003581 6.203416 
4.143245 4.215660 0.011459 
PRIMCOORD
36 1
Li	      4.18993      8.31476      8.37677        -0.020000     -0.003967      0.025815
Li	      4.07275      0.05384      4.01968        -0.034090      0.059812     -0.027150
Li	      6.24535      8.45630     10.21889        -0.012377     -0.031109     -0.009907
Li	      6.16488      2.24942      8.28994         0.081647      0.008396      0.110613
Li	      8.14543      4.36269      8.31254         0.001993     -0.060951      0.059875
Li	      6.15915      4.30395      6.37868        -0.019125      0.037325     -0.003057
Li	      4.24718      6.22728      6.30432         0.046982     -0.037161     -0.087735
Li	      4.16816      4.25313      8.28253        -0.035950      0.042140     -0.014448
Li	      6.26791      6.24651      8.27457        -0.063615      0.040305      0.001083
Ti	     10.32763      4.26034      6.26536         0.036037     -0.066299      0.109847
Cr	      2.05933      2.10735      0.03607         0.065376     -0.014406      0.044292
Cr	      4.18675      4.19204      4.08443        -0.155653      0.079303      0.010341
Cr	      8.27119      6.35576      6.25073        -0.065493      0.256387     -0.472240
Co	      6.19864      6.31430      4.11684         0.098619     -0.108723      0.091211
Co	      2.16080      6.30706      8.26600         0.185126     -0.095889      0.157586
Co	      6.20636      4.26096     10.27403         0.065936     -0.126365      0.007196
Co	      8.34973      6.35565     10.20553         0.265491     -0.116111      0.211648
Co	      6.22625      8.40328      6.27736         0.209362      0.132436      0.008734
O	      2.06559      1.92486      2.03916         0.017708     -0.098441      0.207190
O	      4.27655      4.16905      2.01134         0.000690      0.011740     -0.210661
O	      4.09362      2.18761      4.19515         0.040844      0.004465      0.222429
O	      6.17114      4.22637      3.98427        -0.003648     -0.031902     -0.194669
O	      6.24222      1.98831      6.19163        -0.020579     -0.115819      0.026949
O	      8.40217      4.18457      6.23387         0.159787      0.029058     -0.021765
O	      2.10017      4.28735      4.15681        -0.076655      0.451824      0.236679
O	      4.12005      6.24691      4.15405        -0.572726      0.002343     -0.093908
O	      4.18841      4.11220      6.07802        -0.236318     -0.051102      0.153017
O	      6.29121      6.31541      6.17290         0.050551      0.124335     -0.357913
O	      6.20462      4.24932      8.45866         0.003213      0.012545      0.072873
O	      8.29076      6.33934      8.21476        -0.140142     -0.091851      0.983859
O	      2.03508      6.41671      6.28130        -0.111524     -0.031638     -0.464948
O	      4.09127      8.53875      6.06093         0.054986      0.182484     -0.041659
O	      3.97618      6.33913      8.26476        -0.111191     -0.022830      0.027693
O	      6.22473      8.65225      8.23434        -0.027435      0.014204     -0.580577
O	      6.39328      6.31070     10.46140         0.385105      0.119402     -0.026370
O	      8.39936      8.31517     10.43087        -0.062930     -0.503938     -0.161921
