# total energy = -217.86277444 eV
 
CRYSTAL
PRIMVEC
-0.046643 6.242608 6.159402 
6.303219 -0.041269 6.153872 
4.188571 4.144702 -0.014174 
PRIMCOORD
36 1
Li	      0.08150      0.02741      0.09665        -0.024375     -0.014138     -0.030317
Li	      2.07444      1.99846      0.13359        -0.012330      0.063171     -0.033598
Li	      1.99745      0.04529      1.91210        -0.054466      0.090556      0.106497
Li	      0.02668      1.97984      1.94899         0.079199     -0.092108     -0.068297
Li	      2.14809      4.11310      2.02551         0.037983     -0.018096     -0.152999
Li	      6.31296      4.09301      6.20050         0.117982     -0.017697     -0.159926
Li	      2.13547      6.13409      4.21097        -0.049484      0.052762      0.079588
Li	      2.05909      4.25159      6.16701        -0.049585      0.035647     -0.082588
Li	      4.02521      6.23983      6.16609        -0.068668      0.043451     -0.002849
Ti	      6.11944      6.24897      4.02104         0.031838     -0.377808     -0.183902
Cr	      8.38597      6.17241      6.13105         0.298929     -0.732456     -0.308527
Cr	      4.13392      8.36442      4.17217        -0.209206      0.117849      0.305242
Cr	      4.16986      4.16779      8.14227        -0.011884      0.183031      0.227088
Fe	      6.34859      2.05925      4.16668         0.112339      0.172196      0.118429
Co	      8.40620      4.11363      4.14180         0.214109     -0.057847     -0.633220
Cu	      4.06403      4.22871      4.11238         0.171926     -0.188959     -0.014256
Cu	      6.28061      6.20431      8.12517        -0.140042     -0.039132      0.368311
Ni	      4.15318      8.34728      8.11375        -0.093983     -0.038614      0.086396
O	      2.05508      6.24259      6.12849         0.052340     -0.092106      0.186298
O	      2.16728      2.05661      2.16953        -0.170580      0.031330      0.140096
O	      4.17975      4.09537      2.22131        -0.032109      0.280346     -0.124453
O	      4.25468      1.90937      4.10252        -0.062315      0.219741      0.105700
O	      6.51323      4.10722      4.03710        -0.670687      0.010500     -0.029607
O	      6.20809      2.05605      6.06874        -0.210754      0.069182      0.471295
O	      8.37053      4.19045      6.00067        -0.040936      0.377655      0.639968
O	      1.95893      4.05197      4.07955        -0.036087      0.006514     -0.021483
O	      4.24222      6.30155      4.07750         0.117177      0.051738     -0.116990
O	      4.19852      4.03929      6.12166        -0.137508      0.118112      0.039481
O	      6.41116      6.15162      5.92531        -0.051882      0.156562      0.300952
O	      6.16435      4.20618      8.30891         0.088953      0.446595     -0.216168
O	      8.27430      6.30101      8.10822        -0.096321     -0.023565     -0.007350
O	      4.13859      8.29361      6.09442         0.043331     -0.065017      0.036621
O	      4.28705      6.19877      8.33143         0.237906     -0.130313     -0.198073
O	      6.31161      8.20882      8.29524         0.025679     -0.450895     -0.337975
O	      6.07545      6.18728     10.36520         0.578943      0.014568     -0.386068
O	      8.36846      8.40784     10.18696         0.014571     -0.202755     -0.103317
