# total energy = -218.76832487 eV
 
CRYSTAL
PRIMVEC
0.012023 6.245596 6.152037 
6.246141 0.005609 6.158683 
4.186161 4.190011 -0.018580 
PRIMCOORD
36 1
Li	      2.14710      8.32816      6.12367         0.065772     -0.038108     -0.035380
Li	      6.30343      8.31754     10.26528        -0.000986      0.015598     -0.001597
Li	      8.26482      6.32697      6.19710        -0.064151      0.062456      0.038385
Li	      6.20461      4.26375      6.22414        -0.072770      0.075922      0.059145
Li	      8.29981      6.33582     10.27355         0.050008      0.007499      0.004142
Li	      6.26952      8.27746      6.16451        -0.007298     -0.055305      0.017747
Li	      4.26968      6.25801      6.20526         0.020033     -0.000288      0.009777
Li	      4.15385      4.14261      8.10517         0.006050      0.009941     -0.051988
Li	      6.29718      6.27824      8.04368         0.003936     -0.010237     -0.019615
Ti	      8.43416     10.33642     10.31764         0.161414     -0.321773      0.054252
Cr	      2.11597      6.16075      8.09757         0.083445     -0.151981     -0.268827
Cr	      6.15283      2.11158      8.11987        -0.174847      0.137997      0.055903
Cr	      6.27852      6.27612      4.19410        -0.074558      0.058470     -0.017456
Fe	      4.14891      4.14734      4.27323        -0.067840      0.066117     -0.216170
Co	      4.19634      8.34435      4.10262        -0.027733     -0.049517     -0.018504
Ni	      6.28462      6.25513     12.26635         0.092691      0.073910     -0.003631
Ni	      4.19738      8.30936      8.10377         0.008792     -0.037071      0.026411
Ni	      8.29497      4.19378      8.13811        -0.027858      0.033537     -0.034102
O	      2.01019      2.00039      2.12705        -0.106172     -0.091628      0.013936
O	      4.20186      4.21029      2.07458         0.101015      0.126653      0.097320
O	      4.12422      2.08661      4.05107         0.005174     -0.139533      0.046956
O	      6.29712      4.23841      3.99493         0.067889     -0.037905     -0.021985
O	      6.29769      2.07805      6.31012         0.018606      0.045088      0.030063
O	      8.36137      4.20887      6.05236        -0.062296     -0.031206     -0.314895
O	      2.05062      4.09860      4.04941        -0.028442     -0.039454      0.062059
O	      4.25701      6.29884      3.99633         0.010524      0.100418     -0.070585
O	      4.18726      4.18258      6.06593        -0.017228      0.017843      0.269050
O	      6.27190      6.26017      6.10501        -0.001844      0.003748     -0.010366
O	      6.27701      4.05770      8.32386        -0.086690     -0.048542      0.044437
O	      8.51022      6.22632      8.24265         0.177558      0.103166     -0.064336
O	      2.08884      6.30632      6.27928         0.059662     -0.013563      0.338678
O	      4.19480      8.43356      6.03571         0.013731     -0.156295     -0.173267
O	      4.06337      6.29052      8.28283        -0.052243     -0.118873      0.118647
O	      6.22638      8.52191      8.22308         0.113759      0.152240      0.029728
O	      6.18738      6.17327     10.19818        -0.213773     -0.111402     -0.044276
O	      8.45222      8.44351     10.23601         0.026669      0.362078      0.050344
