# total energy = -220.64146404 eV
 
CRYSTAL
PRIMVEC
0.039138 6.243789 6.347336 
6.146233 0.016355 6.370203 
4.100751 4.181832 0.007236 
PRIMCOORD
36 1
Li	      2.08557      6.27401      8.42462        -0.130188      0.161947     -0.026905
Li	      4.02761      1.98958      2.16208        -0.207743      0.133119     -0.037312
Li	      4.15790      6.30415     10.52003         0.041924     -0.006533     -0.042288
Li	      2.06440      4.14935      2.19735         0.128831     -0.031350     -0.218543
Li	      2.12059      2.15770      4.19676        -0.030572     -0.138998     -0.133947
Li	      4.09794      2.17268      6.31715         0.086665     -0.065518      0.131827
Li	      4.17117      8.33071      4.30697        -0.158151     -0.011430     -0.060334
Li	      4.08416      6.31185      6.38743        -0.072598      0.025466     -0.021162
Li	      6.19357      6.24932      8.57579         0.177784     -0.065131      0.077808
Ti	      6.19188      4.35348      6.30648         0.440890     -0.228972      0.144379
Cr	     10.24702     10.42252     12.69726        -0.233040      0.104425      0.296989
Cr	      6.14424      8.31958     10.56064         0.042083     -0.014881      0.198234
Cr	      4.13380      4.29659      8.51737         0.277411     -0.553195      0.265821
Fe	      4.13026      6.22426      2.21677         0.001740     -0.198690     -0.109279
Co	      8.23134      8.33368     12.70741        -0.255489      0.223958      0.278176
Co	      6.15841      8.28164      6.35012         0.064596      0.059703     -0.077284
Cu	      4.06765      4.13623      4.20675         0.250016      0.108546     -0.417714
Ni	      2.09516      6.21950      4.24590         0.073211      0.250721     -0.401220
O	      1.90537      2.07400      1.92286         1.335579      0.156098     -0.445949
O	      4.06583      4.34030      1.92435        -0.087403     -1.039531     -0.047812
O	      4.15607      2.16262      4.18427        -0.173777     -0.025642      0.165960
O	      6.08300      4.11795      4.38935         0.084334     -0.053365      0.273786
O	      6.22145      2.07800      6.26014         0.100024      0.230784     -0.205123
O	      8.13636      4.05743      6.36526        -0.347780     -0.047276     -0.170649
O	      2.11412      4.17897      4.33855        -0.168209     -0.237588      1.501726
O	      4.15784      6.16517      4.13807         0.075821     -0.029636      0.897396
O	      4.18848      4.19868      6.57159        -0.952160     -0.039827     -0.162645
O	      6.22035      6.15267      6.40160        -0.093287      1.075316     -0.179288
O	      6.09551      4.06978      8.38038        -0.111727      0.825785     -0.328663
O	      8.36397      6.39089      8.51964        -1.216256      0.452175     -0.030387
O	      2.00456      6.36072      6.31278         0.143765     -1.029984      0.038036
O	      4.05047      8.42420      6.40839         1.221409     -0.154108     -0.145783
O	      4.15769      6.09274      8.52006        -0.008582     -0.023932     -0.040579
O	      6.34506      8.29386      8.52841        -0.230737      0.059482     -0.856693
O	      6.17675      6.32474     10.67683        -0.081857      0.030171     -0.073386
O	      8.18636      8.32633     10.62740         0.013471      0.097893     -0.037192
