# total energy = -222.26911198 eV
 
CRYSTAL
PRIMVEC
0.028524 6.178900 6.514501 
6.103908 0.021137 6.521516 
4.068130 4.122794 0.015198 
PRIMCOORD
36 1
Li	      2.04658      2.08083      0.06181         0.037132     -0.019130     -0.000087
Li	      6.14353      4.18155      2.35194        -0.033418      0.078211      0.023296
Li	      4.02934      0.05952      4.28797         0.062346     -0.024749     -0.054105
Li	      4.07733      6.19377      2.26286         0.015769      0.045769      0.089189
Li	      2.11345      2.02169      4.34828        -0.028427      0.108731     -0.093248
Li	      4.16466      4.05037      4.45810        -0.116749      0.028097     -0.041763
Li	      8.05562      6.27950      6.54590         0.018265      0.044070      0.096354
Li	      2.11478      4.05610      6.49698         0.024824      0.026799     -0.130711
Li	      8.11920      8.18916      8.62878         0.115592     -0.001914     -0.003306
Ti	      6.10617      0.15460      6.59738         0.101551      0.060173     -0.091307
Cr	      6.11910      4.10930      6.48626        -0.065806     -0.052001      0.181253
Cr	      8.11957      6.20680     10.86873         0.084339     -0.074385      0.048833
Cr	      4.08171      6.19375      6.50936        -0.158473     -0.026703     -0.211841
Fe	      2.04045      4.08231      2.24343        -0.098420     -0.033452      0.315366
Co	      4.13550      8.22917      8.64718        -0.519272      0.062830      0.268242
Co	     10.10010      8.27778     10.84434         0.050830     -0.078482      0.020387
Cu	      6.15277      8.33874     10.75138         0.164879     -0.087704      0.078267
Cu	      6.11670      6.20067      8.61191         0.067730     -0.067902     -0.071038
O	      5.99504      8.15600      8.58943         0.185118      0.092205      0.245640
O	      2.21744      2.10939      2.22998         0.123226     -0.102387     -0.113352
O	      4.10034      4.03173      2.06668         0.043312     -0.062526     -0.155608
O	      4.19236      2.06949      4.03364        -0.204202     -0.047105     -0.193641
O	      6.15204      4.06701      4.52081         0.038626      0.087330     -0.117781
O	      6.10612      2.02326      6.66503        -0.015406     -0.177266     -0.223283
O	      8.19947      4.16910      6.66469         0.083291      0.020610     -0.039563
O	      1.89958      4.16602      4.28236         0.387694      0.178204     -0.131152
O	      4.00105      6.31368      4.44447        -0.019014     -0.377647      0.077097
O	      4.13577      4.19549      6.51419         0.093291      0.023138     -0.014423
O	      6.06005      6.08613      6.37873         0.025537      0.007416      0.144600
O	      6.14837      4.18091      8.62695        -0.046311     -0.070299     -0.348476
O	      8.10333      6.13168      8.87016        -0.005217      0.088548     -0.021757
O	      2.00543      6.19360      6.40222        -0.132592      0.029602      0.024854
O	      4.07902      8.26425      6.66362         0.065750      0.022352      0.209896
O	      4.11569      6.30927      8.52987        -0.034190      0.090065     -0.027958
O	      6.09940      6.11365     11.09477         0.025658      0.207505      0.256764
O	      8.16861      8.20717     10.83481        -0.337262      0.001996      0.004363
