# total energy = -222.55625542 eV
 
CRYSTAL
PRIMVEC
-0.025016 6.236663 6.237944 
6.226038 0.016504 6.196429 
4.184614 4.164043 -0.023064 
PRIMCOORD
36 1
Li	      4.13096      4.20585      0.07700        -0.073016      0.010836      0.039314
Li	      8.30980      4.20949      4.15841        -0.046348      0.040588      0.034490
Li	      4.17494      6.14391      2.00971         0.001582     -0.089688     -0.014429
Li	      8.33960      4.20560      8.25354         0.008754     -0.026915      0.004476
Li	      6.25162      6.25293      4.20240        -0.015395      0.004949      0.066790
Li	      4.12944      4.18695      4.17884         0.027943     -0.013122     -0.008358
Li	      8.22682      6.26127      6.24560        -0.074281     -0.003135      0.000387
Li	      6.18514      4.27064      6.23751        -0.025565     -0.014474      0.016556
Li	      2.19604      4.07545      6.17026         0.024568     -0.038347     -0.060681
Ti	      6.13802      2.20569      4.21373        -0.307277      0.338607      0.141403
Cr	      8.31535      2.19998      6.21490         0.017663      0.205590      0.171007
Cr	      4.17858      2.12306      2.04432         0.076405     -0.027446      0.003606
Cr	      6.23176      4.19136     10.34967         0.119805     -0.035071     -0.087227
Fe	      2.12659      6.12367      4.11725         0.006239      0.028458      0.029400
Co	      4.18484      6.23487      6.19831         0.111896     -0.093589      0.000283
Co	      6.22517      6.22753      8.25375         0.026322     -0.025646     -0.103762
Ni	      6.19175     10.40035      8.23921         0.072850     -0.076852     -0.005579
Ni	      4.15752      4.14769      8.18144        -0.052516      0.019330      0.055525
O	      2.17287      2.03481      1.92316        -0.037745      0.121124     -0.176779
O	      4.21882      4.07310      2.03209        -0.133666      0.001168      0.032655
O	      4.26077      2.05144      4.07522         0.276647      0.026479     -0.017148
O	      6.30280      4.03487      4.03426        -0.034102     -0.391583      0.163072
O	      6.31846      2.06939      6.09111         0.042455      0.021823     -0.148208
O	      8.33004      3.99229      6.15414        -0.027084     -0.170436     -0.003789
O	      1.96800      4.20620      4.16939        -0.014394     -0.092880     -0.045091
O	      4.12879      6.33030      4.21808         0.042026      0.030346      0.067471
O	      4.14017      4.32446      6.21610         0.047662      0.121904     -0.167101
O	      6.11859      6.25196      6.33878        -0.054692      0.020755      0.079494
O	      6.16279      4.29439      8.38000         0.164937      0.057791      0.030584
O	      8.18332      6.29137      8.30254        -0.073881     -0.160583     -0.039452
O	      2.18695      6.36603      6.18733         0.078157      0.062193     -0.113248
O	      4.07511      8.26279      6.22106        -0.050823     -0.001353     -0.029619
O	      4.21574      6.26980      8.16191         0.105841      0.165826     -0.065781
O	      6.20562      8.24042      8.36601        -0.120850     -0.091114      0.046673
O	      6.28399      6.25618     10.25309        -0.102337      0.023936     -0.031850
O	      8.30160      8.26639     10.42292        -0.007779      0.050531      0.134917
