# total energy = -224.97710424 eV
 
CRYSTAL
PRIMVEC
0.068521 6.279595 6.212615 
6.215667 0.073991 6.207762 
4.177559 4.217172 0.015154 
PRIMCOORD
36 1
Li	      2.20865      8.36399      6.20124         0.001217      0.042385      0.057371
Li	      6.31420      4.24813      2.21536        -0.029891     -0.007956     -0.066628
Li	      8.19798      4.22064      4.10928         0.089202      0.006851      0.002686
Li	      6.14851      6.16124      4.15101        -0.084511     -0.029716      0.014074
Li	      4.29316      4.29207      4.15566        -0.087308      0.014946      0.018326
Li	      6.25588      4.23551      6.11645         0.033927     -0.045314      0.057316
Li	      4.21320      8.32498      4.21878         0.077784     -0.032593      0.034074
Li	      4.20701      6.37427      6.16266         0.038357      0.037152      0.001791
Li	      6.21474      6.38620      8.33419        -0.019963      0.028506     -0.003785
Ti	      4.06153      2.15902      6.06047        -0.248230      0.024896     -0.164294
Cr	      0.09675      6.26688      6.18464         0.007431      0.058344      0.035981
Cr	      4.22542      6.30555      2.14926         0.008042     -0.001989     -0.069889
Cr	      2.06860      4.18983      2.16670        -0.031180      0.044247     -0.071401
Fe	      4.20181      4.42272      8.28441         0.043439     -0.175866     -0.031910
Co	      4.22663      8.34397      8.29722         0.143109     -0.215666      0.099169
Co	      2.14659      6.29570      4.16199         0.029840     -0.027114      0.036642
Co	      2.12174      4.21684      6.17113        -0.054205      0.038222     -0.092424
Ni	      6.34766      8.47708     10.35792        -0.070095     -0.045220      0.029644
O	      2.05267      2.19807      2.12638        -0.137803      0.066486     -0.048477
O	      4.09842      4.25899      2.02015        -0.008757     -0.068948      0.065114
O	      4.28368      2.10745      4.20415        -0.068620      0.069592      0.295831
O	      6.25729      4.09832      4.17357        -0.004297      0.031110     -0.010139
O	      6.16006      2.10148      6.28193        -0.079241     -0.094444      0.085280
O	      8.37314      4.38180      6.33046         0.032592      0.218530      0.020578
O	      2.10093      4.37744      4.19361         0.035756      0.001327     -0.144006
O	      4.08211      6.29635      4.10483        -0.056817      0.016237     -0.018294
O	      4.08462      4.11185      6.27058         0.168915     -0.189900     -0.051203
O	      6.36717      6.45309      6.15486         0.344267     -0.074419     -0.044856
O	      6.24790      4.17441      8.29470         0.007226     -0.014053     -0.015292
O	      8.39335      6.33144      8.33405         0.019086      0.039308      0.006725
O	      2.09689      6.16270      6.07954        -0.028780      0.140209     -0.083944
O	      4.36760      8.50167      6.23250        -0.136212     -0.028022     -0.090799
O	      4.24336      6.29027      8.26206        -0.030667      0.268785      0.039067
O	      6.35501      8.44443      8.15217         0.008486      0.026167      0.036250
O	      6.41240      6.50783     10.41481         0.061285     -0.044279      0.019449
O	      8.29510      8.35765     10.30773         0.026615     -0.077804      0.051972
