# total energy = -215.27932390 eV
 
CRYSTAL
PRIMVEC
-0.003989 6.174608 6.219115 
6.255842 -0.028219 6.243113 
4.168871 4.130933 -0.016977 
PRIMCOORD
36 1
Li	      6.26414      6.13717     12.41996        -0.004087     -0.009127     -0.080217
Li	      8.31876      8.21799     12.42779         0.015046     -0.006675     -0.120991
Li	      4.15821      2.06336      2.05895         0.116105     -0.026352     -0.133988
Li	      6.27373      8.18140     10.39418         0.080440     -0.081773      0.037792
Li	     10.38846      6.18621      8.34997        -0.217445      0.072970     -0.006266
Li	      4.09146      4.13228      4.13419        -0.011453      0.073166      0.021122
Li	      0.00347      4.10170      4.12755        -0.094188      0.008586      0.028014
Li	      8.33256      6.19508     10.31497         0.029406      0.135104     -0.129250
Li	      8.34815      8.18277      8.36352         0.011165     -0.057592      0.025765
Ti	      6.11071      4.15626      2.09063        -0.352070     -0.647819     -0.474626
Cr	      4.27074      6.05959     10.34747         0.458138     -0.327055      0.082297
Cr	      4.19022      2.04841      6.24607        -0.079313     -0.055961      0.460991
Cr	      4.17109      6.19951      6.19351        -0.404091      0.441204      0.999858
Fe	      6.25355      4.00812      6.31313        -0.012217     -0.096665      0.234204
Cu	      2.04364      4.15403      6.18560        -0.030284      0.135870      0.246864
Ni	      2.13989      4.09697      2.09641        -0.009861      0.229337      0.041398
Ni	      2.05701      2.08028      4.11283        -0.396453      0.463124      0.099441
Ni	      6.27475      6.20942      8.34755         0.103266      0.013200      0.137866
O	      2.08424      1.96873      2.05938        -0.006697      0.031584      0.451580
O	      4.25624      4.11373      2.07857         0.645104      0.020442      0.232163
O	      4.07795      1.90102      4.26297        -0.356912      0.115737     -0.590291
O	      6.37042      4.15036      4.08660        -0.115996      0.178950     -0.050447
O	      6.13556      2.10624      6.20904         0.269850     -0.024748     -0.089575
O	      8.29636      4.16199      6.15638         0.084386     -0.118417     -0.437732
O	      2.09923      4.05151      4.18979        -0.101292     -0.561101     -0.043787
O	      4.21860      6.16601      4.28747         0.641984     -0.129506     -0.953452
O	      4.22666      4.10163      6.20786         0.099032      0.067001     -0.099197
O	      6.24351      6.17715      6.23116         0.045825     -0.205464     -0.482618
O	      6.34048      4.14443      8.23061        -0.119065     -0.154407     -0.169832
O	      8.30692      6.12005      8.20498         0.200415      0.043328      0.354563
O	      2.17502      6.14181      6.30140         0.093660      0.103571      0.087304
O	      4.24641      8.14658      6.21477        -0.086320     -0.208003     -0.068654
O	      4.14392      6.16137      8.31249        -0.239748      0.048098      0.203519
O	      6.25102      8.32583      8.19273        -0.014795      0.378909      0.122154
O	      6.10855      6.20402     10.36114        -0.237218     -0.024212      0.093854
O	      8.29993      8.38878     10.39060        -0.004317      0.174695     -0.029827
