# total energy = -216.18686340 eV
 
CRYSTAL
PRIMVEC
0.020346 6.296089 6.227081 
6.266746 0.004029 6.243146 
4.165057 4.195361 0.015413 
PRIMCOORD
36 1
Li	      6.26856      6.28956     12.39533        -0.056500      0.039584     -0.015813
Li	      8.39291      8.44274     12.33372        -0.008112      0.095878     -0.002161
Li	      8.41759     10.40499     10.47347        -0.021648      0.014647     -0.003893
Li	     10.41363      6.36183      8.37505         0.007174      0.045098      0.068147
Li	      4.17468      4.20080      4.14333        -0.026821      0.019827     -0.002111
Li	      6.29685      4.17575      6.32090         0.046629     -0.015187      0.024207
Li	     10.36510      8.41192     10.39586         0.016319     -0.030742     -0.019209
Li	      8.32928      6.43840     10.40658         0.032261      0.044655     -0.041758
Li	      4.31833      4.18448      8.40506         0.084373      0.007368     -0.031346
Ti	      4.33592      2.09890      6.21460         0.222119     -0.210718      0.061341
Cr	      6.20243      4.21227      2.08077         0.067453      0.128933      0.069823
Cr	      6.18237      6.23872      4.19456        -0.331495      0.106950      0.031179
Cr	      2.08180      4.19924      6.21156         0.045209      0.039969     -0.076846
Fe	      8.33549      4.22306      8.30890         0.064494     -0.087531      0.161597
Cu	      6.42015      8.33160     10.37948        -0.155958      0.158258     -0.057090
Cu	      4.15487      6.27505      6.23954        -0.170482      0.208661     -0.146331
Ni	      4.13894      2.12404      2.09962        -0.030989     -0.133462      0.088303
Ni	      6.25125      6.23664      8.37822        -0.120144      0.091358     -0.022429
O	      6.28555      6.41096     10.33950         0.037659     -0.100605      0.208326
O	      8.31547      8.42411     10.38474         0.101327     -0.024073      0.083894
O	      2.06740      2.07933      2.18939        -0.160591     -0.063908     -0.107074
O	      4.16874      4.16652      2.09204        -0.022859      0.181015      0.036215
O	      4.03678      2.07125      4.23243        -0.006737     -0.026498      0.201942
O	      6.25578      4.34522      4.07228         0.019173     -0.123812      0.005853
O	      6.19633      2.15034      6.11200        -0.203677     -0.015028      0.022705
O	      8.35105      4.33828      6.32908         0.061092      0.128826     -0.170902
O	      2.11230      3.99455      4.19207         0.050954      0.011421      0.053678
O	      4.31383      6.27040      4.33604         0.271001     -0.083809     -0.727284
O	      4.07410      4.04832      6.25959         0.182250      0.145980     -0.014633
O	      6.26526      6.33649      6.21009         0.136753      0.108119      0.026530
O	      6.38728      4.22623      8.36099        -0.108644     -0.169389     -0.044182
O	      8.35859      6.23659      8.20949         0.107662      0.055267     -0.093179
O	      2.14191      6.19093      6.29122         0.141329     -0.115884     -0.027978
O	      4.30959      8.38455      6.26754        -0.440605     -0.424440     -0.207645
O	      4.11531      6.34513      8.14174        -0.043262     -0.057113      0.767768
O	      6.20640      8.45529      8.32895         0.213294      0.050382     -0.099644
