# total energy = -214.76712976 eV
 
CRYSTAL
PRIMVEC
-0.009819 6.361209 6.117023 
6.283822 -0.013359 6.120986 
4.179606 4.234435 0.000340 
PRIMCOORD
36 1
Li	      4.15112      0.09754      4.11307        -0.137084     -0.021562      0.025046
Li	      6.20192      2.14748      4.11036         0.063358      0.112671      0.050797
Li	      6.21773      6.28296      4.23140        -0.081166     -0.126819     -0.057974
Li	      4.21443      4.28378      4.18158         0.107761      0.046392     -0.059981
Li	      6.15280      4.28665      6.00991         0.016892     -0.127499     -0.127524
Li	      4.18812      8.37755      4.07533        -0.058774     -0.094316      0.015014
Li	      2.19030      6.34202      4.09116         0.063818      0.074706      0.025017
Li	      4.21680      6.27377      5.97047        -0.124238      0.023280     -0.059883
Li	      4.20440      4.20852      8.13803        -0.024317     -0.007742      0.155152
Ti	      2.01677      4.24704      2.16518        -0.108347     -0.037916      0.463281
Cr	      6.31579      6.35653     12.13919         0.099736      0.064955     -0.053084
Cr	      8.40596      8.46921     12.07505         0.009966     -0.089528     -0.355526
Cr	      6.32822      4.21600      2.13247        -0.066531      0.084500     -0.009635
Fe	      6.15297      6.34974      8.21046        -0.059935     -0.045027      0.464142
Cu	      4.20127      2.11644      2.14716        -0.088918     -0.013510      0.022355
Cu	      4.12210      2.20186      6.02733        -0.034599     -0.133726     -0.104957
Cu	      2.11208      4.15235      6.02412        -0.099089     -0.066061      0.000239
Ni	      4.17645      6.35990      2.09148         0.063155     -0.001512      0.026858
O	      4.04985      4.15033      6.15541         0.069636     -0.034507     -0.018915
O	      8.38137      8.46181     10.31280         0.060065      0.026380      0.031494
O	      2.15756      2.13308      1.95834        -0.052345      0.147355      0.008354
O	      4.20947      4.21220      1.95454        -0.093304      0.067930      0.009767
O	      4.14549      2.14368      4.15768        -0.024161      0.073029      0.067917
O	      6.24974      4.24386      3.98498         0.057438     -0.050627      0.272035
O	      6.45868      2.01438      6.17767        -0.224370      0.010932     -0.080429
O	      8.50206      4.07261      6.18327        -0.021524      0.024290      0.120212
O	      2.10482      4.25396      3.99141        -0.014327     -0.045620     -0.412119
O	      4.18802      6.34546      4.00995        -0.022152      0.019694      0.194944
O	      6.17658      6.26556      6.29695         0.185852      0.182152     -0.357653
O	      6.40859      4.22764      8.15287         0.221213      0.132720     -0.074937
O	      8.36796      6.17828      8.02167        -0.144745     -0.065848      0.083065
O	      2.04340      6.54448      6.19674         0.046709      0.031596     -0.047217
O	      4.16527      8.59968      6.12054         0.064058      0.089665     -0.047172
O	      4.12773      6.45687      8.20327         0.149793     -0.141240     -0.056472
O	      6.18967      8.56102      8.10923         0.180792     -0.136314     -0.154182
O	      6.30569      6.38182     10.13102         0.019682      0.027129      0.041972
