# total energy = -216.04873556 eV
 
CRYSTAL
PRIMVEC
0.031812 6.356995 6.170828 
6.229755 0.023497 6.179318 
4.176130 4.266811 -0.007508 
PRIMCOORD
36 1
Li	      6.31076      6.38527     12.23315         0.091973     -0.011466      0.015977
Li	      6.30442      8.41694     10.25239        -0.007874     -0.077506     -0.033718
Li	      2.12070      2.13566      4.12117         0.019033      0.032282     -0.013825
Li	      8.33145      6.40138      6.18743        -0.018333     -0.011346      0.014866
Li	      6.23955      4.39263     10.26266         0.029141      0.158392     -0.039566
Li	      8.22821      6.39214     10.23765        -0.064286     -0.066959     -0.006065
Li	      2.08856      4.26564      6.16475        -0.040940      0.020326     -0.028755
Li	      8.31948      8.42512      8.31745        -0.021567     -0.040385      0.051259
Li	      6.35037      6.39462      8.31452         0.010390     -0.000134      0.014358
Ti	      4.28184      6.38058      6.02661         0.061491      0.157266     -0.103294
Cr	      8.32348      8.48852     12.29186         0.152066     -0.026617     -0.000945
Cr	      4.25025      8.45370      8.24420        -0.017259     -0.081040     -0.044545
Cr	      8.31153      4.36686      8.25567         0.076501     -0.178697      0.004870
Fe	      4.14809      4.13834      4.14742        -0.060319      0.017469     -0.025976
Cu	      6.29871     10.58163      8.24645        -0.107611     -0.056615     -0.013306
Cu	      4.25674      6.34761     10.29846         0.035982      0.063900     -0.026641
Cu	     10.35947      6.48176      8.25189         0.136729      0.229087      0.034152
Cu	      6.23875      4.25965      6.18823        -0.091776      0.117440     -0.065875
O	      6.35669      4.36206      8.16442        -0.022763     -0.047479      0.308871
O	      6.18770      6.39587     10.31266         0.113023      0.058669     -0.023581
O	      8.35403      8.60708     10.36931        -0.039115     -0.097769     -0.186166
O	      2.09463      2.17584      1.97754        -0.071443      0.147080      0.161937
O	      4.14689      4.09653      2.09519         0.042161      0.105943     -0.105704
O	      4.15558      2.15981      4.06783        -0.000464     -0.143697      0.121945
O	      6.20005      4.27245      4.08604         0.105630     -0.044111      0.042453
O	      6.29879      2.24884      6.26355        -0.195787     -0.178991      0.005241
O	      8.22502      4.18025      6.15962         0.186818      0.079875      0.091102
O	      2.19439      4.24139      4.03892        -0.134910      0.011081      0.025364
O	      4.17374      6.30761      4.16929         0.040750     -0.008747      0.056621
O	      4.22708      4.36285      6.14303        -0.178270      0.035612      0.107585
O	      6.13739      6.33914      6.18512        -0.122826      0.146744     -0.024252
O	      8.42980      6.31064      8.21053        -0.057382      0.078137     -0.014924
O	      2.20691      6.46050      6.26475        -0.036856     -0.050202     -0.179142
O	      4.13988      8.35317      6.22139         0.018539     -0.088658     -0.061804
O	      4.12129      6.47798      8.26172        -0.027851     -0.089745     -0.079824
O	      6.16296      8.59947      8.18881         0.197401     -0.159143      0.021306
