# total energy = -215.89961169 eV
 
CRYSTAL
PRIMVEC
0.007045 6.278159 6.272677 
6.036448 0.028212 6.251334 
4.051678 4.197981 -0.008037 
PRIMCOORD
36 1
Li	      6.03195      0.03765      6.24190         0.011461      0.014080     -0.013597
Li	      6.06154     10.44577      8.36546        -0.043501     -0.057912      0.002292
Li	      4.07030      8.36683      8.38245        -0.019418      0.008213      0.062336
Li	      6.00063      2.13090      4.14324        -0.037070     -0.025081     -0.031084
Li	      0.01730      2.07205      2.07202         0.035476     -0.083868     -0.011375
Li	      4.06734      4.15541      4.19604        -0.006534     -0.079900      0.004770
Li	      5.99780      4.18330      6.26377        -0.034413     -0.015134     -0.006004
Li	     10.08079      8.43118     10.43940         0.011495      0.051236      0.019760
Li	      4.03792      6.26476      6.31198        -0.009947     -0.032324      0.055218
Ti	      5.99323      6.15813      4.16329        -0.126321     -0.209930      0.028928
Cr	      2.03254      8.36038      6.27413         0.023560     -0.030030      0.035256
Cr	      2.07717      4.19037      2.08043         0.285491      0.033965     -0.027354
Cr	      8.07876      6.33386     10.42019         0.088744     -0.020632      0.032140
Fe	      6.02610      8.41930      6.32154        -0.117907      0.133916     -0.216903
Ni	      4.07946      6.30912     10.40552         0.030430     -0.061031      0.132188
Ni	      4.11722      2.14762      6.21822         0.063071     -0.068979      0.013902
Ni	      4.06010      4.24368      8.33028         0.051606     -0.090178      0.056350
Ni	      6.02582      6.31689      8.34426         0.018854      0.070823     -0.080699
O	      2.01168      2.20254      2.09726         0.000834      0.039569     -0.035900
O	      3.86579      4.21595      2.07871        -0.088699     -0.027433      0.016847
O	      3.93658      2.07502      4.20980        -0.089181      0.095052     -0.120648
O	      6.06230      4.32716      4.14251        -0.122169      0.181136     -0.009336
O	      6.19006      2.12189      6.27781         0.124653     -0.002830      0.022074
O	      8.06451      4.12474      6.34766        -0.025756     -0.035481      0.090005
O	      2.01434      4.23180      4.09568        -0.007375      0.032804     -0.020684
O	      4.08579      6.29492      4.14466         0.147430      0.023500     -0.033573
O	      3.95308      4.15473      6.30296         0.102823      0.131175     -0.122310
O	      6.06873      6.40034      6.13848        -0.104339     -0.093294     -0.118440
O	      6.16397      4.35285      8.32669         0.020141      0.017544     -0.016936
O	      8.07019      6.27623      8.36831         0.010143     -0.057639      0.054650
O	      2.02770      6.32295      6.18085        -0.012900      0.044190      0.013717
O	      3.96736      8.39545      6.27926        -0.101874     -0.033412      0.021205
O	      4.07563      6.22495      8.40760        -0.066457      0.128964     -0.127979
O	      6.07317      8.30969      8.26892        -0.095990     -0.028438      0.166649
O	      6.12058      6.30916     10.38390         0.092295      0.053405      0.065879
O	      8.08684      8.34995     10.53908        -0.008657     -0.006045      0.098657
