# total energy = -222.06496889 eV
 
CRYSTAL
PRIMVEC
0.005942 6.281351 6.192066 
6.525790 0.001767 6.194897 
4.318113 4.159340 0.031744 
PRIMCOORD
36 1
Li	      0.04488      6.27522      6.18147         0.036102      0.008200     -0.035871
Li	      6.58877     10.26058      8.30245         0.196870      0.041389     -0.007545
Li	      4.54152      8.27896      8.27001         0.030889     -0.055549     -0.051719
Li	      4.38702      6.32444     10.16310        -0.018999     -0.055864     -0.093867
Li	      6.45381      8.36689     10.16954         0.033183     -0.010750      0.025782
Li	      6.45615      8.35724      6.38778        -0.104989     -0.027722      0.004209
Li	      4.35632      6.22176      6.35363         0.074747     -0.000728      0.107791
Li	      4.17775      4.31774      8.18729        -0.019890      0.051944      0.006609
Li	      6.37724      6.40157      8.25404        -0.187287     -0.021433     -0.095217
Ti	      2.24131      8.28792      6.21190         0.161172     -0.300129     -0.055070
Cr	      0.00456      2.07716      2.04557         0.068217      0.087640     -0.003064
Cr	      8.69788      4.19057      8.26580        -0.088162     -0.091738      0.154082
Cr	      6.48757      4.23427     10.32675        -0.001199      0.085686     -0.047790
Fe	      6.60147      6.14907      4.25384        -0.257683      0.266895     -0.203428
Fe	      8.57344      6.29385     10.34043         0.098274     -0.056238     -0.016390
Co	      6.52270      4.17393      6.19845         0.100470     -0.021266      0.059062
Cu	      4.42971      4.12010      4.14279         0.106336      0.071905     -0.018898
Cu	      4.34197      2.10786      6.18561        -0.074219     -0.100497      0.055111
O	      4.33396      6.26947      8.25612        -0.089669      0.053439      0.081692
O	      6.51777      8.35919      8.25586        -0.023392     -0.001212     -0.013573
O	      2.05894      2.15335      2.08066        -0.090250      0.051007     -0.071912
O	      4.17180      4.25577      2.16639        -0.047526     -0.057601     -0.043494
O	      4.20906      2.14637      4.19248         0.235478      0.044057     -0.010921
O	      6.57407      4.22724      4.27425        -0.069699     -0.213588      0.109043
O	      6.73584      2.21238      6.24482        -0.045215      0.061370      0.050095
O	      8.54218      4.19157      6.28079        -0.035136     -0.026223     -0.013264
O	      1.98575      4.18653      4.11688        -0.009429     -0.036417     -0.064221
O	      4.25014      6.31890      4.09008        -0.055197     -0.023897     -0.033277
O	      4.60123      4.03942      6.10888         0.117455      0.094372      0.025790
O	      6.38469      6.09983      6.16457         0.149173     -0.046534      0.134281
O	      6.65411      4.10215      8.23863         0.066485     -0.075833      0.041212
O	      8.83000      6.20008      8.28612         0.038413      0.013096     -0.070566
O	      2.13538      6.41612      6.15491        -0.023151      0.205345      0.035736
O	      4.12768      8.43681      6.16091        -0.144696      0.030187     -0.016709
O	      6.65494      6.20402     10.31599        -0.125958      0.017049     -0.014828
O	      8.78630      8.31093     10.43653        -0.001519      0.039641      0.091126
