# total energy = -225.67870138 eV
 
CRYSTAL
PRIMVEC
0.016505 6.273447 6.303105 
6.156101 0.054452 6.265872 
4.130262 4.183502 0.009979 
PRIMCOORD
36 1
Li	      4.06013      4.19865      0.09908        -0.098347      0.054473     -0.068503
Li	      4.10371      2.24671      2.10819        -0.029056     -0.039600      0.004915
Li	      4.15339      0.11539      4.20667         0.014777     -0.053791      0.058293
Li	      4.10921      6.13219      2.14713         0.012484      0.063091     -0.075495
Li	      8.34127      4.34196      8.32817        -0.061007      0.041317     -0.037522
Li	      4.09034      4.21151      4.00505        -0.030792     -0.046109      0.111283
Li	      8.26661      6.19749      6.27408         0.000394     -0.053628     -0.053396
Li	      0.08641      4.26127      4.21189        -0.038892      0.049841     -0.009427
Li	      6.20444      6.27970      8.48243        -0.008039     -0.050563     -0.062144
Ti	      4.23527      4.15850      8.42396         0.391395      0.001317      0.092584
Cr	      2.05069      2.12388      0.05275        -0.248526      0.262778     -0.073980
Cr	      6.08711      2.09833      4.17604        -0.078947     -0.014038      0.267956
Cr	      6.14926      8.39805      6.30470         0.064097     -0.175681     -0.094720
Fe	      2.12924      2.13971      4.06681        -0.009200      0.184755      0.278388
Fe	      4.14392      6.31472      6.26718         0.293395     -0.207831      0.104182
Co	      6.20398      4.21144      6.28963         0.216634      0.064077     -0.157144
Co	      8.23549      6.31664     10.43168         0.145689     -0.553597     -0.106161
Cu	      6.09629      4.20493      2.14246         0.071630      0.064905      0.120597
O	      4.19825      4.19728      2.06552        -0.027189      0.017767      0.006360
O	      2.04547      2.03258      2.09223        -0.014361     -0.072988     -0.132210
O	      4.07843      2.09935      4.18699         0.162965      0.018544     -0.054920
O	      6.17648      4.21819      4.35716        -0.171831     -0.086549     -0.088145
O	      6.23063      2.16487      6.16314         0.057631     -0.334509     -0.065054
O	      8.15332      4.11218      6.30359         0.321606      0.005195      0.070408
O	      2.06251      4.24969      4.30127         0.012035     -1.020974      0.044694
O	      4.11951      6.28037      4.27316         0.178434      0.024756     -0.151656
O	      4.07488      4.20965      6.43028        -0.250686      0.076254      0.143133
O	      6.13787      6.37366      6.19688         0.031572      0.299521      0.048922
O	      6.08976      4.25890      8.28727        -0.491829     -0.034660     -0.024971
O	      8.22576      6.41664      8.49366         0.013215      0.129829     -0.197068
O	      2.11425      6.26861      6.10513        -0.049451      0.008280      0.262735
O	      4.11957      8.29848      6.32264         0.038097      0.045771      0.012141
O	      4.01756      6.14235      8.32186        -0.004879     -0.013378      0.035880
O	      6.23277      8.43504      8.38462        -0.014359      0.012608     -0.012715
O	      6.29772      6.41176     10.46578        -0.346149      0.086715     -0.062348
O	      8.18966      8.30149     10.48189        -0.052504      1.246101     -0.134895
