# total energy = -226.44564368 eV
 
CRYSTAL
PRIMVEC
0.044936 6.295971 6.173225 
6.239982 0.032545 6.185307 
4.175577 4.221043 0.006242 
PRIMCOORD
36 1
Li	      6.25438      6.36522     12.22479        -0.012966      0.049635      0.109185
Li	      4.17539      2.09280      2.19798        -0.001355      0.021773     -0.047543
Li	      4.19065      0.25113      4.08173        -0.119262      0.005625     -0.021875
Li	      6.11967      2.03996      4.12847         0.034130      0.132567     -0.010106
Li	      2.25736      1.99787      4.14589         0.039641     -0.014881      0.019953
Li	      4.13470      2.03683      6.04752        -0.036498     -0.019521      0.129101
Li	      6.31729      4.26808      6.15468         0.018984     -0.012582     -0.028546
Li	      6.29713      4.37899     10.26274         0.012631     -0.011145     -0.007271
Li	      6.28995      6.28217      8.35061         0.038299     -0.021747     -0.166112
Ti	      8.29420      2.26737      6.08119        -0.229704      0.424971     -0.142456
Cr	      4.23596      4.12908      4.12709         0.105735     -0.280328      0.027535
Cr	      6.22082      8.43857      6.18761         0.028378      0.028103      0.036529
Cr	      8.35769      8.43366      8.29322        -0.051789     -0.172097      0.041766
Fe	      0.03318      2.11370      2.06082        -0.137915     -0.077190     -0.167449
Fe	      4.28085      6.35182      6.17519        -0.070802     -0.118771      0.293943
Co	      6.24532      4.22071      2.09240         0.044022     -0.032852     -0.131671
Co	      8.31689      6.32513     10.30665        -0.877556      0.071401      0.229150
Ni	      8.30433      4.24287      8.26461         0.067703      0.062168     -0.026115
O	      2.05721      2.02885      1.96954         0.019460     -0.042019     -0.048794
O	      4.23700      4.28372      2.13043         0.085626      0.010965      0.030236
O	      4.16995      2.19547      4.13604         0.054304      0.054463     -0.012548
O	      6.20257      4.22928      3.98427        -0.072703      0.036172      0.090918
O	      6.40194      2.12333      6.25273         0.246172     -0.008533     -0.114417
O	      8.35567      4.11721      6.21850         0.029239     -0.393908     -0.174262
O	      2.15454      4.33025      4.13618         0.078999     -0.907808      0.308275
O	      4.08056      6.21287      4.14949        -0.256779      0.037886     -0.087197
O	      4.09133      4.26813      6.21854         0.001961      0.049138     -0.055245
O	      6.19432      6.44829      6.21977         0.027803     -0.004856     -0.005976
O	      6.21662      4.13003      8.25057        -0.091440      0.106421      0.078116
O	      8.39859      6.35954      8.36094         0.104898      0.205070     -1.187315
O	      2.16190      6.30130      6.18043         0.038798     -0.043657      0.869999
O	      4.16467      8.33866      6.19538        -0.024620      0.084904     -0.092316
O	      4.05481      6.20811      8.21160         0.046465      0.031951      0.011230
O	      6.34683      8.58290      8.16723         0.009650     -0.090423      0.019316
O	      6.43144      6.33252     10.28756         0.657766      0.008396     -0.013045
O	      8.36996      8.30727     10.32837         0.192724      0.830711      0.245006
