# total energy = -227.43235635 eV
 
CRYSTAL
PRIMVEC
-0.005736 6.287938 6.209540 
6.324977 -0.022540 6.226506 
4.206075 4.192591 -0.004359 
PRIMCOORD
36 1
Li	      6.40211      6.16382     12.24549         0.064866      0.010038     -0.070961
Li	      8.48657      8.34098     12.28460        -0.014667     -0.010317     -0.146724
Li	      4.43253      6.20848     10.34992         0.087523     -0.286082     -0.033967
Li	      6.39804      8.14421     10.33991         0.235419     -0.000344      0.006422
Li	      8.34034      4.21056      8.39636        -0.082178      0.099421     -0.028784
Li	      6.39632      4.36480     10.38793        -0.286252      0.050762     -0.030742
Li	      8.19355      6.19016     10.40233        -0.007863      0.211076     -0.063581
Li	      2.01780      4.28262      6.15639        -0.002472      0.016801      0.053198
Li	      6.33668      6.24200      8.51561         0.073018     -0.106324      0.007996
Ti	      8.42899      6.15051      6.21433         0.122071     -0.255329      0.304480
Cr	      4.20839      6.26975      2.06008        -0.162058      0.139538     -0.025976
Cr	      2.10309      2.13771      4.13281         0.021559     -0.002441      0.068176
Cr	      6.31599      4.15919      6.19743        -0.014074     -0.030211     -0.060545
Fe	      4.31438      8.43234      8.23793         0.030506     -0.101360      0.155642
Fe	      4.06016      6.34208      6.18791         0.061772     -0.042788      0.053229
Co	      4.14158      4.21533      4.14624         0.269398     -0.098728      0.008748
Co	      8.40064      8.37444      8.49348        -0.006799      0.011090     -1.415675
Co	      2.11127      6.28681      8.27906         0.033679     -0.064131     -0.006182
O	      6.32220      6.26265     10.36142        -0.009573     -0.040546      0.014773
O	      2.07920      1.98288      2.13107        -0.034290      0.129158      0.029982
O	      4.36278      4.19382      2.02063        -0.124133      0.113753      0.283394
O	      4.14014      2.11689      4.18379        -0.090113      0.487202     -0.029251
O	      6.23238      4.29259      4.11086        -0.769624      0.123104      0.149197
O	      6.19455      2.15063      6.26145        -0.154350      0.011003      0.037382
O	      8.33236      4.30164      6.22623        -0.070659      0.280664     -0.024831
O	      2.15258      4.10427      4.14092         0.728248      0.020663     -0.029292
O	      4.28416      6.29788      4.12699         0.010001     -0.595715     -0.020860
O	      4.29222      4.18058      6.31452        -0.110852      0.068653      0.075793
O	      6.37672      6.20221      6.17211         0.017183     -0.038626     -0.065357
O	      6.28167      4.05446      8.17658         0.015536     -0.183786      0.157275
O	      8.49894      6.29529      8.15608         0.183868     -0.178314     -0.138553
O	      2.16475      6.28835      6.35311        -0.156846      0.001457     -0.002171
O	      4.20025      8.29383      6.31445         0.066652     -0.008703     -0.071774
O	      4.06989      6.32102      8.23690        -0.032579      0.257847      0.120162
O	      6.28394      8.55439      8.29878         0.087650      0.050603      0.093459
O	      8.42216      8.36446     10.24482         0.020435     -0.039088      0.645918
