# total energy = -220.34593486 eV
 
CRYSTAL
PRIMVEC
-0.008146 6.251690 6.237299 
6.211497 -0.018756 6.248028 
4.147569 4.181475 -0.019044 
PRIMCOORD
36 1
Li	      4.17069      6.20222     10.36162        -0.010954     -0.015930      0.043545
Li	      6.22055      8.31984     10.38067         0.033418     -0.001430      0.009587
Li	      6.18791      2.20454      8.34318        -0.026435      0.147441     -0.028992
Li	      8.15997      4.15667      8.27350        -0.103997      0.014398     -0.023514
Li	      6.20385      4.19333      6.28685        -0.015702     -0.006443      0.079593
Li	      6.16841      4.16000     10.30427         0.019919      0.018970     -0.172951
Li	      4.18543      6.20798      6.27651         0.015535     -0.055365     -0.017549
Li	      4.29633      4.24083      8.30869         0.064011     -0.028051     -0.056689
Li	      6.09587      6.11031      8.33066        -0.007415     -0.033061      0.007744
Ti	      8.24142      6.29831     10.20310        -0.205817      0.060004     -0.153610
Cr	      8.26549      2.12812      6.24142        -0.280020     -0.011308     -0.022388
Cr	      6.24798     10.40652      8.32572        -0.097534      0.202881     -0.002080
Cr	      6.14717      6.27419      4.12431         0.027740     -0.023371      0.099625
Fe	      8.35210      6.19539      6.26089        -0.007445      0.035136      0.224425
Fe	      6.24074      8.30774      6.24969        -0.034724      0.029995     -0.067876
Cu	      4.16059      8.29856      8.35022         0.042243      0.068626     -0.090093
Ni	      6.19901     -0.00456      6.24148        -0.001581     -0.000677      0.020955
Ni	      4.14862      4.17527      4.16203         0.029414     -0.067380      0.008833
O	      6.21660      4.16174      8.31340        -0.032817      0.025385     -0.013638
O	      2.13511      2.01685      2.07674        -0.149192      0.138674     -0.084623
O	      4.25070      4.07225      2.07552        -0.197375     -0.141713     -0.008376
O	      4.04478      2.11454      4.18551        -0.075361     -0.079481     -0.177461
O	      6.18012      4.28870      4.05038         0.126105     -0.019589      0.096382
O	      6.21384      2.04362      6.26227         0.146936      0.129871      0.007071
O	      8.31521      4.16455      6.21949        -0.101050     -0.119266     -0.007681
O	      2.06649      4.19466      4.24612        -0.119967      0.026822     -0.092012
O	      4.10849      6.20496      4.14955        -0.053620      0.203421     -0.027637
O	      4.07424      4.04628      6.23726         0.077987      0.077425      0.149988
O	      6.26829      6.31697      6.11916        -0.062743     -0.065897      0.063279
O	      8.28019      6.24703      8.35379         0.016144     -0.032399      0.186970
O	      2.06635      6.28478      6.25437         0.104958      0.007889     -0.022632
O	      4.10005      8.38935      6.32333         0.107841     -0.188045     -0.004297
O	      4.05292      6.31842      8.32900         0.366737      0.017241      0.005622
O	      6.14142      8.41885      8.22761         0.153217     -0.231181      0.262854
O	      6.37057      6.20957     10.42909         0.212727      0.030468     -0.161076
O	      8.29161      8.19568     10.50657         0.038815     -0.114060     -0.031298
