# total energy = -220.49597336 eV
 
CRYSTAL
PRIMVEC
-0.002892 6.264694 6.304978 
6.192427 0.002042 6.299596 
4.140390 4.185228 -0.010790 
PRIMCOORD
36 1
Li	      2.12638      8.27664      6.31179         0.004732     -0.004231     -0.032653
Li	      6.18229     10.36340      8.40328        -0.064744     -0.017783     -0.029741
Li	      6.19921      8.36104     10.35088        -0.068898      0.010054      0.029495
Li	      4.18913      6.24217      2.13253         0.003474      0.050535     -0.016926
Li	      4.15778      4.25412      4.13643         0.031914     -0.020239      0.051983
Li	      6.19015      4.16583     10.47962         0.018345     -0.042563      0.063034
Li	      6.11952      8.43800      6.39967         0.003544      0.028897     -0.018674
Li	      8.14099      8.37140      8.39379        -0.020298     -0.036723     -0.022782
Li	      6.16706      6.39936      8.38632        -0.006322     -0.009494      0.004486
Ti	      4.12838      2.18963      6.26542         0.200489      0.335887     -0.161337
Cr	      4.16010     10.40733      6.28035         0.099624      0.147944      0.023740
Cr	      2.06016      4.18603      2.14106        -0.089357      0.084014      0.084245
Cr	      6.24398      4.13364      6.29822        -0.244652     -0.163846      0.067772
Fe	      4.13660      6.11582     10.32659         0.062871      0.147430      0.112100
Fe	      8.28328      6.33251     10.50923         0.041050      0.012240     -0.161285
Cu	      4.16911      8.36036      8.38186        -0.154504      0.066999     -0.058845
Cu	      4.08557      6.32169      6.34141         0.059570      0.038448      0.211865
Ni	      6.15553      6.29420      4.21240        -0.012214      0.062721     -0.072645
O	      6.00937      8.38100      8.38275         0.289845     -0.044440     -0.029907
O	      2.23632      2.23481      2.17397        -0.090119     -0.057236     -0.124239
O	      4.03647      4.18226      2.00076         0.007718     -0.040453      0.104065
O	      4.09856      1.99457      4.38045         0.067261     -0.059404      0.229385
O	      6.29707      4.20771      4.29943        -0.016378     -0.072681     -0.067298
O	      6.08855      2.06841      6.33805        -0.191897      0.100110      0.044757
O	      8.27462      4.22146      6.34477         0.073027      0.067443      0.042498
O	      2.07135      4.25071      4.05955         0.054784      0.051091     -0.061409
O	      4.09197      6.27899      4.37603         0.001876     -0.035838     -0.238331
O	      4.21931      4.05134      6.36517         0.066277     -0.385231      0.055736
O	      6.28403      6.15300      6.30921         0.067436     -0.026399      0.143425
O	      6.40836      4.09114      8.28775         0.124955     -0.106006      0.031877
O	      8.27996      6.13872      8.38310        -0.056875      0.005697     -0.087540
O	      1.99991      6.29506      6.19545        -0.182789      0.046967      0.083639
O	      4.12706      8.49987      6.29020        -0.019987     -0.030233      0.077014
O	      4.11233      6.30891      8.36569        -0.036553     -0.067012     -0.043580
O	      6.16107      6.27646     10.59293        -0.003980     -0.030663     -0.166740
O	      8.25659      8.35766     10.39119        -0.019227     -0.005999     -0.067183
