# total energy = -221.31274932 eV
 
CRYSTAL
PRIMVEC
-0.016395 6.215502 6.307632 
6.236026 -0.017282 6.308556 
4.161107 4.148117 -0.015376 
PRIMCOORD
36 1
Li	      4.17924     10.33025      6.33341        -0.092971      0.002953      0.208831
Li	      6.22606     10.34335      8.40403        -0.125398      0.036227      0.090763
Li	      4.14989      8.28787      8.38380        -0.050212      0.110950      0.050086
Li	      2.12044      2.07816      4.23534         0.065870      0.011701     -0.038914
Li	      4.09499      4.14137      4.20775        -0.033490     -0.067802     -0.150111
Li	      8.22656      6.26953      6.27845         0.000398     -0.032023      0.028862
Li	      6.25362      8.24823      6.33994         0.011622     -0.029558     -0.005508
Li	      4.10370      4.13387      8.35984         0.047984     -0.042118     -0.085501
Li	      6.22701      6.23668      8.34912         0.041669     -0.046558     -0.089646
Ti	      6.11814      8.23204     10.34921        -0.284135      0.316890     -0.469921
Cr	      2.07928      8.26789      6.32773        -0.123216      0.333691      0.410760
Cr	      4.15532      6.19611      2.10574         0.027426     -0.112785     -0.062863
Cr	      4.16595      6.21681      6.41951         0.151040     -0.208227      0.110182
Fe	      2.11314      4.14703      2.13772         0.251027     -0.137984     -0.406316
Fe	      6.19594      4.20639      6.27499         0.362198     -0.123759      0.324816
Cu	      4.15082      6.21479     10.46136        -0.019109      0.244970      0.110505
Cu	      6.24369      4.17406     10.51910         0.266032     -0.171048     -0.030100
Cu	      2.11265      6.18977      4.20314        -0.209588     -0.119087     -0.049078
O	      4.12266      6.17551      8.20331         0.018897     -0.009905     -0.041785
O	      6.17311      6.23325     10.53312         0.104573     -0.027519      0.021990
O	      1.99561      2.06634      2.02368         0.127983     -0.181559      0.025865
O	      4.05135      4.23173      2.12402         0.673602     -0.205564      0.074281
O	      4.26628      1.98916      4.21760         0.167657     -0.039868     -0.006665
O	      6.34599      3.99807      4.27220        -0.083061     -0.143336     -0.160450
O	      6.30076      2.09898      6.34277        -0.058345     -0.058728     -0.177458
O	      8.28779      4.06919      6.49191        -0.135285     -0.140436     -0.944043
O	      1.99320      4.11794      4.04585        -0.193244      0.263085      1.066132
O	      4.15784      6.34193      4.15960        -0.004850      0.025828      0.083048
O	      4.20412      4.29419      6.21914        -0.136947      0.082345     -0.096345
O	      6.15819      6.16803      6.30831        -0.082236      0.145807     -0.081998
O	      6.31215      4.03742      8.28501        -0.636353      0.295113      0.320359
O	      8.39450      6.17940      8.50892        -0.240969      0.302194      0.010064
O	      2.14346      6.26880      6.18964         0.005084     -0.038219     -0.033994
O	      4.06680      8.13829      6.35516         0.175179      0.046078     -0.433388
O	      6.22879      8.28316      8.54481         0.017069     -0.084074      0.528157
O	      8.29353      8.38358     10.59748        -0.005901     -0.197674     -0.100616
