# total energy = -220.31717489 eV
 
CRYSTAL
PRIMVEC
-0.003586 6.300617 6.244463 
6.303496 -0.001672 6.242289 
4.194763 4.191572 0.006357 
PRIMCOORD
36 1
Li	      4.12296      2.18664      2.13683        -0.011334      0.024972      0.007502
Li	      4.24703      6.22923      2.20473        -0.016696     -0.016352      0.004585
Li	      2.08750      4.23853      2.23238        -0.008135      0.040764     -0.104156
Li	      2.13148      2.24857      4.11337         0.017882     -0.031111     -0.056780
Li	      4.04388      4.17255      4.10297         0.038290     -0.018728     -0.030963
Li	      4.12651      2.12603      6.19083         0.022196      0.021959      0.044163
Li	      0.19226      4.15440      4.11890         0.002905     -0.045399      0.015370
Li	      2.13884      6.08715      4.12893         0.001532     -0.014188      0.003977
Li	      2.13746      4.11711      6.05693         0.011950      0.008486     -0.038492
Ti	      8.45725      8.25556      8.31654         0.155310     -0.564962     -0.033209
Cr	      2.11219      2.09126      0.05101        -0.021246      0.049871     -0.077419
Cr	      6.27988      2.11363      4.16678        -0.080937      0.035206      0.076654
Cr	      4.23100      6.32185      6.15031        -0.008479      0.008788     -0.454049
Fe	      4.21854     10.43104      6.31845        -0.022495      0.036424     -0.159174
Fe	      4.17764      0.10206      4.13880         0.004781     -0.053065      0.109290
Ni	      6.25682      4.21336      2.10684        -0.022270      0.021541      0.051633
Ni	      6.28229      4.21989      6.26463         0.070382     -0.103006     -0.035141
Ni	      6.29249      6.31145      8.34473         0.058499      0.021682      0.047248
O	      2.11421      4.17449      4.12320        -0.007189     -0.025432      0.007049
O	      2.06272      2.02001      1.96207         0.049549      0.060741      0.113757
O	      4.28129      4.19209      1.97242        -0.065540      0.007424      0.182071
O	      4.27970      2.02237      4.17942         0.024547      0.154822      0.011420
O	      6.38093      4.12640      4.19590        -0.085963      0.000643     -0.010754
O	      6.40116      2.04822      6.16893        -0.038608     -0.021905     -0.010734
O	      8.44897      4.09705      6.19758         0.010739      0.060325      0.078492
O	      4.18167      6.27401      4.36306         0.030482      0.026007      0.237021
O	      4.20592      4.31516      6.36446        -0.113184      0.009179      0.128524
O	      6.12805      6.27906      6.33671        -0.115759      0.111409     -0.131882
O	      6.16610      4.25377      8.32566        -0.209737     -0.084851      0.103172
O	      8.35035      6.41197      8.28748         0.103252      0.439166      0.062445
O	      2.14396      6.38204      6.25544         0.135413     -0.053400     -0.073526
O	      4.11655      8.38022      6.23869         0.042781     -0.122270     -0.033379
O	      4.14194      6.24684      8.30397         0.000885     -0.025212     -0.085591
O	      6.40838      8.42324      8.41270         0.019841      0.047519      0.017851
O	      6.22714      6.38352     10.44342         0.049280      0.006823      0.084160
O	      8.32836      8.48652     10.38190        -0.022923     -0.013870     -0.051134
