# total energy = -228.00930678 eV
 
CRYSTAL
PRIMVEC
0.008559 6.230488 6.250278 
6.203688 0.022902 6.235692 
4.164728 4.172453 -0.013122 
PRIMCOORD
36 1
Li	      8.26244      8.38277     12.34622         0.016027      0.034454     -0.025766
Li	      4.14926      2.11626      2.13515         0.010505     -0.001079      0.082823
Li	      8.18623      4.15793      4.20464        -0.020077      0.017919      0.023531
Li	      6.29981      2.17866      4.20368         0.029536      0.019475     -0.024416
Li	      0.02707      2.07481      2.07404         0.014425     -0.005144     -0.010102
Li	      4.23607      4.16717      4.20234        -0.010717     -0.046495      0.008985
Li	      6.15283      4.08525      6.16873        -0.056414     -0.029036      0.023330
Li	      4.17576      6.21058      6.15957         0.017133     -0.013005      0.027047
Li	      8.31616      8.32733      8.32028         0.006902      0.012636     -0.012667
Ti	      6.05545      6.25242      8.36940        -0.426129     -0.052137      0.047514
Cr	      2.09612      0.02779      2.12692         0.045839     -0.021364      0.046040
Cr	      4.15177      2.10974      6.21045        -0.001159     -0.036564     -0.059857
Cr	      2.19053      6.30812      4.12671         0.006616      0.054493      0.030268
Fe	      6.19424      0.05562      6.24219        -0.007459      0.008126     -0.092078
Fe	      2.11947      4.07768      2.07713         0.072455     -0.084783     -0.011884
Fe	      2.10625      4.17068      6.24493        -0.038605     -0.009737     -0.042836
Co	      6.21754      6.21632      4.16488         0.061991     -0.114251      0.016244
Ni	     10.32919      8.32983     10.39001        -0.012224      0.019316     -0.014070
O	      2.08723      2.06393      2.24802         0.012567     -0.003626      0.053849
O	      4.21077      4.16634      2.00516        -0.019363      0.014179      0.051969
O	      3.95127      2.05443      4.27587        -0.032513     -0.004994     -0.092954
O	      6.21803      4.30220      4.05680        -0.023150      0.035894      0.028280
O	      6.12967      2.03236      6.19729         0.007768      0.065912      0.036000
O	      8.35309      4.20884      6.33126        -0.054439      0.015967     -0.095653
O	      2.06917      4.12787      4.12521         0.100245      0.040154      0.055582
O	      4.18800      6.28135      4.14959         0.012150     -0.144929     -0.039897
O	      4.06168      4.08262      6.24761         0.059627      0.037018      0.036482
O	      6.24617      6.29965      6.26335         0.024471     -0.069573     -0.003483
O	      6.28888      4.33037      8.29694        -0.057146      0.116602     -0.079796
O	      8.22295      6.17657      8.34258        -0.011207      0.082700     -0.013752
O	      2.07472      6.21711      6.23792         0.030897      0.076049      0.004276
O	      4.26284      8.44208      6.18257        -0.011160     -0.063038      0.111321
O	      4.19191      6.24623      8.33187         0.324485      0.008531      0.013097
O	      6.21670      8.30982      8.27012         0.025789     -0.040027      0.053556
O	      6.31678      6.27760     10.31074         0.035046      0.089021     -0.086579
O	      8.33002      8.24966     10.37709        -0.132710     -0.008660     -0.044405
