# total energy = -230.06653386 eV
 
CRYSTAL
PRIMVEC
0.023247 6.297134 6.237867 
6.316807 0.016540 6.244453 
4.215317 4.206495 0.007029 
PRIMCOORD
36 1
Li	      0.05566      0.04580      0.08157         0.089373     -0.037657     -0.035880
Li	      2.00763      2.10168      0.10482        -0.025386     -0.010462      0.079173
Li	      6.16518      4.20869      2.12505         0.016743     -0.024192     -0.026060
Li	      6.36299      8.37781     10.39619         0.038363     -0.014933      0.077716
Li	      4.21352      6.20838      2.05286        -0.019652     -0.029729      0.013383
Li	      2.28015      4.15591      2.09720         0.050903     -0.033927     -0.071532
Li	      4.21069      4.20276      3.98600         0.007849      0.024589      0.036529
Li	      8.37629      6.30712     10.33797        -0.050772     -0.016799      0.030842
Li	      6.38767      6.36483      8.38211         0.007074      0.015192     -0.026414
Ti	      4.07202      6.37586      6.25526        -0.762272      0.154606     -0.125425
Cr	      2.13019      2.10437      4.10440        -0.051672      0.102896      0.035343
Cr	      6.35136      4.19870      6.27173         0.113324     -0.049071      0.075434
Cr	      8.37425      8.39876      8.34869        -0.090700     -0.068050      0.081539
Fe	      4.28228      6.29976     10.39681         0.020543     -0.032494      0.050530
Fe	      8.53765      6.27381      6.33142        -0.119982      0.023078     -0.092141
Fe	      6.36680      4.29090     10.29125        -0.002169     -0.069559      0.134420
Co	      6.32043      8.42542      6.26801        -0.101778     -0.018241     -0.099631
Co	      4.21347      2.16531      2.10540        -0.024971      0.295952     -0.055322
O	      2.28391      2.10397      2.15690         0.016850     -0.005681     -0.016874
O	      4.23454      4.04750      2.06792        -0.029982     -0.147750      0.020682
O	      4.17135      2.06999      4.12316        -0.006902     -0.017424     -0.029152
O	      6.42587      4.29444      4.26061        -0.020880      0.003036     -0.020175
O	      6.25273      2.20231      6.23620         0.053857      0.084031     -0.005653
O	      8.35399      4.29743      6.20457        -0.072813     -0.036617      0.037921
O	      2.02268      4.13715      4.20109         0.116993      0.019811      0.460837
O	      4.31388      6.36812      4.29475         0.058526      0.020143      0.073529
O	      4.29762      4.25190      6.30158         0.057163     -0.005536     -0.055723
O	      6.34171      6.26942      6.17662         0.022578      0.019260     -0.042733
O	      6.19820      4.19430      8.32019        -0.063559      0.032951     -0.150782
O	      8.40493      6.41436      8.24839        -0.005750      0.062392      0.144065
O	      2.24267      6.28111      6.18345         0.618104     -0.075127      0.097158
O	      4.19815      8.29638      6.31836         0.132289     -0.297894      0.006224
O	      4.24088      6.30637      8.26002        -0.007581     -0.039642     -0.035690
O	      6.30645      8.39818      8.26982         0.064724      0.106018     -0.475689
O	      6.25944      6.22903     10.43989        -0.006458      0.088290     -0.039772
O	      8.50706      8.48478     10.32921        -0.021977     -0.021461     -0.050678
