# total energy = -225.54342557 eV
 
CRYSTAL
PRIMVEC
0.020062 6.170511 6.386932 
6.213401 0.008033 6.398658 
4.143836 4.123011 0.003729 
PRIMCOORD
36 1
Li	      8.30434      8.27646     12.72892         0.041111     -0.016920     -0.041190
Li	      4.20216      6.17692     10.64277         0.021253     -0.034725     -0.009879
Li	      6.24113      6.18428      4.29542         0.005977      0.030333     -0.006137
Li	      4.14611      4.08575      4.30197        -0.020950      0.019080      0.018007
Li	      4.15764      2.05296      6.29773        -0.041546     -0.009566     -0.100113
Li	     10.29932      8.25273     10.69733        -0.028214     -0.038552      0.064018
Li	      4.16244      6.21767      6.36511        -0.025847      0.011903     -0.035623
Li	      8.31332      8.25522      8.56296        -0.024604     -0.006134      0.012399
Li	      6.20818      6.15826      8.55672         0.001980      0.015426     -0.030886
Ti	      6.10007      4.18192      6.34826        -0.266213      0.160936     -0.040627
Cr	      6.19040      0.04105      6.37681         0.001657     -0.017840     -0.103932
Cr	      2.14952      6.22108      4.25739        -0.072560      0.007568     -0.017973
Cr	      2.11435      4.05467      6.32535         0.089385     -0.063395      0.018887
Fe	      6.28992      4.12444      2.25204        -0.048033     -0.057461     -0.021544
Fe	      4.19239      8.16828      8.60091         0.008076     -0.024361     -0.076998
Fe	      8.22878      4.14751      8.53755         0.019559     -0.034961      0.155440
Cu	      6.23467      8.20677     10.66464        -0.004467     -0.007822      0.062219
Ni	     10.34211      6.22053      8.57324         0.023846      0.020463      0.032607
O	      2.10586      2.04212      2.20178         0.048214      0.066407     -0.033502
O	      4.16373      4.10644      2.03710         0.003811     -0.065151      0.006858
O	      4.25014      2.06740      4.13728         0.043013     -0.014362      0.021989
O	      6.23528      4.07766      4.31562         0.004205      0.047108      0.032292
O	      6.21556      2.12063      6.52139         0.020952     -0.063587     -0.042854
O	      8.29230      4.13381      6.50945        -0.019768      0.014794     -0.035204
O	      2.05333      4.21843      4.26234         0.037152     -0.037436     -0.005845
O	      3.98829      6.20046      4.22641         0.011315     -0.002965      0.098566
O	      4.21438      4.10968      6.35867         0.204395     -0.026646     -0.023946
O	      6.22132      6.11303      6.32546         0.025506     -0.135214     -0.003833
O	      6.26796      4.13844      8.36612        -0.087142      0.104942     -0.122714
O	      8.29598      6.11033      8.69035        -0.098660      0.064211      0.069945
O	      2.03590      6.09937      6.34431        -0.042757     -0.008216     -0.020781
O	      4.25483      8.31478      6.43730        -0.024631      0.036264      0.090812
O	      4.07804      6.20945      8.51635         0.092161     -0.021439     -0.013364
O	      6.21420      8.29736      8.32664         0.029991     -0.031719     -0.062304
O	      6.32357      6.19189     10.76801        -0.009521      0.069205      0.137281
O	      8.22263      8.09829     10.66413         0.081353      0.049834      0.027927
