# total energy = -224.72208085 eV
 
CRYSTAL
PRIMVEC
-0.013911 6.357598 6.154130 
6.286367 -0.010806 6.151175 
4.176400 4.221967 0.007377 
PRIMCOORD
36 1
Li	      2.13274      6.32716      8.17474         0.063972     -0.053354     -0.010814
Li	      4.21525      8.40596      8.19183         0.130640     -0.091526     -0.000023
Li	      6.31916      8.44866     10.18336        -0.016801      0.069575     -0.112652
Li	      4.16993      6.35473      2.08610        -0.025505      0.014675      0.020823
Li	      8.33837      4.23267      8.23895        -0.097803      0.058656      0.048521
Li	      8.35808      6.38960     10.24378         0.073748     -0.019981     -0.023894
Li	      6.25100      8.51610      6.21206         0.031630      0.038129      0.064504
Li	      4.10916      6.35431      6.20913        -0.063160     -0.046468      0.034511
Li	      8.30717      8.46291      8.27166        -0.065665     -0.033973     -0.023584
Ti	      4.10726      4.26990      3.95186        -0.155226      0.042598     -0.134512
Cr	      0.03890      6.33840      6.15952         0.027000      0.291514      0.223711
Cr	      2.09751      8.41317      6.18465        -0.075356      0.051373      0.408724
Cr	      8.35993      6.34525      6.18259        -0.030803      0.047269      0.153394
Fe	      2.07060      2.12092      3.95141        -0.035603     -0.009880      0.221545
Fe	      6.22375      4.22791      6.23094        -0.049627     -0.068943     -0.037367
Fe	      6.26937      6.45304      8.30632         0.195523     -0.324410     -0.341370
Cu	      4.18720      6.29368     10.18635         0.045555     -0.025052     -0.117409
Cu	     10.41586      8.42487     10.22838         0.183849      0.046999     -0.039147
O	      8.42951      8.44048     10.35333        -0.155180      0.035925     -0.131523
O	      2.09405      2.11868      2.05468        -0.006624      0.024070     -0.292814
O	      4.17247      4.20911      2.08119        -0.070228     -0.023572      0.096119
O	      4.11314      2.22569      4.16611         0.107053      0.004015     -0.132922
O	      6.16764      4.27281      4.15952         0.033786     -0.159917     -0.096456
O	      6.26552      2.11335      6.19945         0.116794     -0.058202     -0.021227
O	      8.37569      4.22630      6.06708         0.063121     -0.111370      0.080588
O	      2.16673      4.14752      4.11654         0.138818      0.049131      0.014961
O	      4.23597      6.17271      4.11936        -0.142765     -0.197220      0.002320
O	      4.26402      4.11383      6.07699        -0.148856      0.027158     -0.118223
O	      6.36756      6.22753      6.12560        -0.125071      0.039043     -0.208629
O	      6.27564      4.37816      8.19952         0.050271     -0.201173      0.161901
O	      8.20163      6.34154      8.13210         0.537559     -0.072323      0.025397
O	      1.99623      6.44333      6.19785         0.017840      0.085002     -0.059242
O	      4.08798      8.56801      6.08624        -0.034452     -0.105109     -0.033741
O	      4.35229      6.34948      8.26778        -0.576007     -0.090203      0.011367
O	      6.26996      8.26655      8.19237         0.034394      0.700978     -0.029960
O	      6.31861      6.42711     10.30501         0.023178      0.066567      0.397122
