# total energy = -224.33811475 eV
 
CRYSTAL
PRIMVEC
0.008682 6.297529 6.323761 
6.150020 0.003112 6.329206 
4.110696 4.212791 -0.008618 
PRIMCOORD
36 1
Li	      8.19812      8.41931     12.57307         0.000834      0.052456     -0.050052
Li	      6.25586     10.42484      8.48734        -0.045401     -0.034939      0.055671
Li	      8.15381     10.47893     10.50008         0.031444      0.010503     -0.068642
Li	      6.23457      8.45396     10.43580        -0.013556      0.011573     -0.046875
Li	      6.22056      6.25464      4.25100         0.038031     -0.034952      0.001777
Li	      8.15090      6.29798      6.27720         0.030909      0.003907     -0.012232
Li	      8.16921      6.36358     10.53819        -0.023831     -0.003509     -0.038166
Li	      8.06487      8.44201      8.54001         0.009100     -0.015227      0.057923
Li	      6.14486      6.42661      8.44785        -0.020535     -0.022943      0.060705
Ti	      6.15515      2.13591      8.42244        -0.193952      0.086299     -0.178448
Cr	      4.13442      8.36927      8.47889         0.005245     -0.067244      0.038194
Cr	      4.14946      4.16672      4.23320         0.036527      0.008578      0.009578
Cr	     10.18955      8.41797     10.55523        -0.070905      0.103466     -0.064007
Fe	      6.20981      6.36514     12.51694        -0.133627      0.022656      0.064026
Fe	      8.19324      4.24094      8.42601        -0.015133      0.108749      0.005022
Fe	      4.09602      6.26219      6.41808        -0.124686      0.052488     -0.109734
Ni	      6.22339      4.25108      6.24317        -0.004512     -0.122852      0.108914
Ni	      6.18936      8.36766      6.35255         0.064751     -0.046457     -0.051786
O	      2.02266      2.19349      2.11773        -0.036440     -0.046321      0.000224
O	      4.10561      4.22227      2.15209         0.063090      0.040676     -0.048635
O	      4.11053      2.21956      4.09897         0.026722     -0.037433      0.027417
O	      6.07749      4.19323      4.26081         0.073369      0.027935     -0.119187
O	      6.19533      2.04834      6.49223        -0.020172      0.074406      0.185470
O	      8.28366      4.23506      6.44302         0.004730     -0.021199     -0.031650
O	      2.04330      4.20094      4.15663         0.034756     -0.011634      0.050846
O	      4.11412      6.32161      4.14691         0.035119     -0.058061     -0.009846
O	      4.12813      4.26626      6.22157         0.025438     -0.109111      0.022160
O	      6.06303      6.30228      6.32282         0.146480      0.021596     -0.001763
O	      6.17983      4.09701      8.50287        -0.068286     -0.096095      0.009098
O	      8.36094      6.22739      8.43954         0.206722      0.092089      0.019163
O	      2.04214      6.22889      6.31311         0.089699      0.021142      0.001155
O	      4.11782      8.40416      6.28808        -0.103834     -0.033441      0.068945
O	      4.07484      6.41256      8.35084         0.040859     -0.019343      0.136911
O	      6.07301      8.39175      8.37638        -0.000356      0.059459      0.052603
O	      6.14994      6.17016     10.62509        -0.012178      0.020098     -0.176849
O	      8.32642      8.40197     10.52989        -0.076422     -0.037317      0.032070
