# total energy = -231.95060190 eV
 
CRYSTAL
PRIMVEC
0.019710 6.293046 6.320410 
6.212288 0.018021 6.322174 
4.138606 4.193803 0.014823 
PRIMCOORD
36 1
Li	      6.22234      6.32546     12.53535        -0.006872     -0.013722     -0.018535
Li	      6.19591      4.15675      2.20078        -0.022233     -0.014392      0.138342
Li	      8.30688      4.21041      4.26708        -0.031084      0.006449      0.031575
Li	      6.22241      2.05647      4.30447         0.013722     -0.007637      0.054157
Li	      4.18248      4.17739      4.22372        -0.015181     -0.036342     -0.031995
Li	      4.15121      2.11387      6.21737        -0.004393      0.033227     -0.085747
Li	      6.20613      4.30534     10.55352         0.026995      0.042228     -0.001339
Li	      4.13271      6.28879      6.31016         0.013939     -0.005225      0.022547
Li	      6.24095      6.28075      8.54428         0.009602      0.007053      0.039287
Ti	      4.26783      8.25867      8.49134         0.167224     -0.252670      0.074263
Cr	      8.32752      8.36528     12.57584         0.037489      0.090965     -0.031733
Cr	      6.18570      6.27238      4.23970         0.031666     -0.049740      0.012214
Cr	      2.09068      4.21679      6.27329         0.037785     -0.033836      0.039815
Fe	      4.09225      6.23602      2.12150         0.140045     -0.025610     -0.094964
Fe	      8.28317      4.25573      8.42287         0.004855     -0.083856      0.005366
Fe	      6.15258      4.22432      6.26529        -0.057321      0.037667      0.108435
Fe	      8.28222      8.49029      8.55827        -0.090819      0.061467     -0.077713
Co	      8.27147      6.32445     10.54222        -0.030868      0.053481      0.084979
O	      2.09002      2.11688      2.09731        -0.032769     -0.011387      0.003454
O	      4.06002      4.19307      2.10279         0.011740     -0.024989     -0.006801
O	      4.07192      2.10975      4.07745        -0.011200     -0.036546     -0.145788
O	      6.17457      4.30004      4.33839         0.019947     -0.039407     -0.159463
O	      6.28645      2.16754      6.39884        -0.014836     -0.050975     -0.043599
O	      8.22894      4.10711      6.40426        -0.007023      0.016693     -0.005261
O	      2.06897      4.10543      4.23156         0.000468      0.063386     -0.022304
O	      4.11168      6.30452      4.09898        -0.023360     -0.024274      0.045950
O	      4.12083      4.19922      6.43797        -0.107342     -0.000905     -0.129192
O	      6.22287      6.34864      6.21119        -0.019103      0.004161     -0.004304
O	      6.27289      4.16147      8.33918         0.110552     -0.046660      0.036442
O	      8.31398      6.23961      8.53172        -0.033036     -0.024603     -0.027247
O	      2.09564      6.29011      6.17140         0.051765     -0.015796      0.010104
O	      4.14749      8.38869      6.46446         0.067845     -0.012912      0.030700
O	      4.15932      6.41996      8.46944         0.031174      0.428073      0.010990
O	      6.14433      8.45027      8.32767        -0.281166     -0.057691     -0.028630
O	      6.44562      6.31999     10.53097         0.028051      0.036511     -0.013535
O	      8.33477      8.43915     10.60445        -0.016254     -0.012183      0.179529
