# total energy = -229.00895748 eV
 
CRYSTAL
PRIMVEC
0.014831 6.309460 6.251964 
6.258831 0.029918 6.236887 
4.199310 4.223141 -0.006777 
PRIMCOORD
36 1
Li	      6.27324     10.40675      8.41271        -0.043202     -0.064652     -0.016099
Li	      6.30541      8.49423     10.28461         0.021409      0.045718      0.025037
Li	     10.38658      6.44123      8.39058        -0.021653      0.068714      0.030054
Li	      4.19907      4.27188      4.14373         0.011031      0.021265     -0.001679
Li	      6.22599      4.24863      6.28246         0.010345     -0.009119      0.015351
Li	      6.29606      4.21134     10.31786        -0.012527     -0.000891      0.031371
Li	      2.15456      6.28907      4.10287         0.056014     -0.033720      0.029474
Li	      2.15237      4.18268      6.26495         0.048779     -0.044582     -0.013525
Li	      8.38721      8.39878      8.33421         0.033110     -0.041319      0.018138
Ti	      8.27450      8.38705     12.43786        -0.091897     -0.210804     -0.230176
Cr	      4.25546      8.45699      8.33607         0.022166      0.009969      0.005518
Cr	      4.17052      6.31848     10.36943        -0.008501     -0.040527     -0.026265
Cr	      4.19353      2.20993      6.24436         0.034800      0.103215      0.002291
Fe	      0.05558      6.26166      6.20100         0.054803     -0.009905     -0.041532
Fe	      8.26999      4.31346      8.43945         0.183695      0.013718     -0.100582
Fe	      6.21326      6.31679      4.13949         0.010892      0.063414      0.007639
Fe	      4.25486      6.13951      6.24554        -0.107245      0.128051      0.065877
Ni	      6.32234      6.36254      8.38037        -0.002794     -0.009013     -0.026508
O	      2.14349      2.22056      2.01477        -0.028007     -0.078705     -0.129767
O	      4.14088      4.14227      1.94031        -0.005659     -0.014751      0.158663
O	      4.13209      2.04216      4.16634         0.063704      0.037358     -0.013131
O	      6.37525      4.34691      4.11275         0.019255     -0.083926      0.010689
O	      6.29953      2.07505      6.26230         0.101868      0.040328     -0.021538
O	      8.41978      4.28148      6.16648        -0.060920     -0.024892      0.022111
O	      2.13014      4.12230      4.10935         0.002282      0.042616      0.153195
O	      4.25420      6.30475      4.30755        -0.113709      0.064241     -0.145718
O	      4.20120      4.21496      6.26338        -0.000786     -0.184723      0.026674
O	      6.32150      6.36155      6.19617         0.061542     -0.011337      0.012462
O	      6.36308      4.29496      8.31457        -0.158466      0.100484     -0.001405
O	      8.37837      6.30883      8.21645         0.168274      0.103005      0.024566
O	      2.11441      6.46103      6.23328         0.005143      0.148802      0.040706
O	      4.06393      8.42157      6.33937        -0.023901     -0.029566     -0.057902
O	      4.23050      6.40155      8.30981        -0.176589      0.014681      0.027829
O	      6.19552      8.40662      8.32508        -0.003859     -0.114171     -0.038222
O	      6.20475      6.30859     10.50022        -0.019705      0.030329     -0.040386
O	      8.35802      8.54595     10.56776        -0.029691     -0.029306      0.196790
