# total energy = -232.31441155 eV
 
CRYSTAL
PRIMVEC
0.008546 6.212111 6.226005 
6.401517 -0.002827 6.237368 
4.266914 4.148330 -0.001229 
PRIMCOORD
36 1
Li	      2.26185      0.03238      2.18142         0.008687      0.003780      0.047374
Li	      4.25027      8.14449      8.40260        -0.040329      0.005738      0.021224
Li	      4.28644      6.22847     10.19319         0.035853     -0.015789      0.083083
Li	      6.37731      8.29366     10.28376        -0.005310      0.046152     -0.046761
Li	      4.31432      6.19194      2.11918         0.048417     -0.030813     -0.024800
Li	      6.36769      6.14634      4.07238        -0.038648     -0.002173     -0.019686
Li	      8.53612      6.23469     10.35887        -0.028618     -0.000392     -0.006775
Li	      4.25218      6.24441      6.31546        -0.009498      0.025423      0.013271
Li	      6.28050      6.26470      8.41801        -0.019677      0.023819      0.053461
Ti	      8.43169      6.18763      6.17747        -0.295583      0.084743     -0.201849
Cr	      2.11823      8.24927      6.21896         0.075387     -0.044164     -0.019535
Cr	      4.31063      4.22399      4.12247         0.087591      0.030884     -0.054430
Cr	      4.25714      4.19755      8.34706        -0.060654      0.015748      0.044970
Fe	      6.45935      6.23506     12.39408        -0.024264     -0.046167      0.154282
Fe	      2.18222      4.12092      2.16231        -0.095440      0.051755     -0.020977
Fe	      6.42271      4.16508      6.18087        -0.040910     -0.017284      0.086142
Fe	      4.24780      8.19993      4.10468         0.061499      0.056733      0.041580
Fe	      6.33656      8.33066      6.33518        -0.020261      0.009780     -0.110844
O	      2.12824      2.17876      1.94484        -0.007519     -0.078161      0.032378
O	      4.15143      4.14761      2.12551         0.082524      0.011171     -0.087713
O	      4.30944      2.15416      4.29350        -0.049440     -0.006892      0.218103
O	      6.27223      4.18148      4.21802        -0.033914     -0.036071     -0.217491
O	      6.46135      1.99964      6.21231        -0.053812      0.024144     -0.007763
O	      8.59816      4.15164      6.27866         0.050276      0.069589     -0.033406
O	      2.16153      4.16561      4.16531         0.007773     -0.011398      0.077973
O	      4.28696      6.23670      4.17840        -0.016342     -0.123892      0.006868
O	      4.20458      4.08071      6.24493        -0.038056     -0.100687     -0.045428
O	      6.54731      6.31221      6.21079         0.321394      0.012184      0.002738
O	      6.39300      4.15256      8.31129         0.059555     -0.015542      0.010526
O	      8.56839      6.20836      8.14560         0.032713      0.006836     -0.099763
O	      2.04253      6.22605      6.26068         0.071841      0.051551     -0.011529
O	      4.26434      8.31467      6.19146        -0.075852      0.004824      0.036933
O	      4.28433      6.11879      8.28951         0.017069     -0.023582     -0.014479
O	      6.51582      8.28957      8.22127         0.060897     -0.026052      0.189441
O	      6.41691      6.08016     10.47744        -0.012330      0.031547     -0.158645
O	      8.63505      8.24845     10.37516        -0.055019      0.012658      0.061526
