# total energy = -218.43643319 eV
 
CRYSTAL
PRIMVEC
0.027449 6.241741 6.211056 
6.257560 0.025557 6.212987 
4.180828 4.171609 0.007840 
PRIMCOORD
36 1
Li	      2.15944      0.04682      2.14353         0.064491     -0.057391      0.005101
Li	      4.14980      2.05483      2.12696         0.082335     -0.037325      0.014676
Li	      6.21842      2.18884      4.15421        -0.038289      0.018805     -0.062956
Li	      6.30356      6.16279      4.15056         0.052176      0.021499      0.052555
Li	      4.22311      2.10918      6.13241        -0.024048     -0.015864     -0.050245
Li	      6.21927      4.17263      6.16451        -0.007108      0.009914      0.008382
Li	     10.42853      8.34457     10.36652         0.060708      0.012691      0.034036
Li	      4.19271      6.23532      6.23296        -0.047317      0.050219      0.014418
Li	      4.22379      4.24167      8.28695        -0.033570      0.077925      0.029180
Ti	      6.24016      8.26738      6.31795        -0.261345     -0.138016      0.299814
Mn	      4.23061      4.10622      4.14371        -0.010449     -0.167989      0.091638
Cr	      8.33918      4.15935      8.24743         0.067060      0.707820      0.038568
Cr	      8.36405      6.36510     10.35339        -0.245801      0.003932      0.300405
Cr	      6.22362      6.24223      8.30377         0.360295      0.134054     -0.021645
Cu	      8.23496      4.26875      4.15936         0.156398      0.001655      0.386219
Ni	      6.29999      6.28197     12.42061        -0.044582     -0.127265      0.006164
Ni	      2.15747      8.31351      6.22807         0.304035      0.004966     -0.116212
Ni	      6.26636      2.13964      8.25441         0.352556     -0.008678     -0.567484
O	      2.03049      2.20088      2.04615        -0.504032     -0.818449      0.333961
O	      4.08890      4.19810      2.15399         0.295623      0.169797      0.011193
O	      4.16755      2.22025      4.13957         0.074223     -0.160088     -0.026252
O	      6.10361      4.19011      4.15275         0.046085     -0.052466     -0.030558
O	      6.33111      2.02654      6.31518        -0.397331      0.470861      0.406237
O	      8.43287      4.16333      6.20198        -0.405089      0.110623     -0.487599
O	      2.20362      4.25490      4.09990        -0.113595      0.031614      0.113831
O	      4.04757      6.12271      4.06226         0.122708      0.220776     -0.127277
O	      4.05383      4.18539      6.05090         0.009863     -0.020406      0.035777
O	      6.21765      6.36973      6.29157        -0.027099      0.150902      0.001849
O	      6.37267      4.23636      8.27166        -0.421789     -0.384554     -0.005880
O	      8.31851      6.20428      8.35444         0.415636      0.274051     -0.064117
O	      2.09618      6.19846      6.13356         0.335900     -0.061172     -0.088137
O	      4.30775      8.39368      6.18101         0.236052     -0.389115      0.049882
O	      4.28009      6.24777      8.45780        -0.404329      0.081336      0.112522
O	      6.33766      8.27942      8.17804        -0.021756     -0.029440     -0.257353
O	      6.48124      6.23573     10.30782        -0.006775     -0.003238     -0.207054
O	      8.43601      8.19547     10.39900        -0.021841     -0.081983     -0.233637
