# total energy = -219.28912541 eV
 
CRYSTAL
PRIMVEC
-0.026113 6.170138 6.278489 
6.189720 -0.028828 6.281407 
4.117081 4.106021 -0.010125 
PRIMCOORD
36 1
Li	      6.16933      6.13762     12.43266        -0.027996      0.004929     -0.179701
Li	      6.15424      4.10634      2.09490         0.003467     -0.026296      0.012350
Li	      8.22614      4.11658      4.22166         0.051370     -0.060338      0.001213
Li	      6.16513      8.15555     10.50097         0.018343     -0.042788      0.005594
Li	      0.01941      2.06843      2.09495         0.023172      0.039570     -0.080882
Li	      2.07642      4.05452      2.05764        -0.043790      0.004886     -0.068450
Li	      6.18305      4.11736      6.28247        -0.005384      0.019260      0.066129
Li	     -0.00819      4.12816      4.20732        -0.030495      0.063508     -0.052184
Li	      4.10255      6.19294      6.21675         0.055900     -0.037752      0.050532
Ti	      8.15434      2.08917      6.26376        -0.389359      0.226364      0.113213
Mn	      4.12547      4.13730      8.37499         0.109156      0.025500      0.067262
Cr	      4.07041      8.19837      8.34012        -0.043050     -0.011530      0.134833
Cr	      4.16430      4.12136      4.14928         0.022829     -0.170216     -0.082177
Cr	      6.17392      6.12105      8.41310        -0.024659     -0.078605     -0.110630
Cu	      6.12446      6.16997      4.23205         0.032964     -0.021789     -0.042543
Cu	      8.23620      6.15129     10.46004         0.027807     -0.108535     -0.098396
Ni	      8.29013      6.06472      6.26436         0.103869     -0.080003      0.006959
Ni	      6.12681      8.23850      6.28036        -0.023816      0.053685      0.030014
O	      4.15518      6.06624      4.15698        -0.074363      0.123511      0.022509
O	      2.12271      2.00654      1.89934         0.004556      0.031061     -0.130704
O	      4.10059      3.98457      2.29708         0.010529      0.096966      0.003777
O	      4.03283      2.09511      4.15131         0.035147      0.073709     -0.122431
O	      5.99309      4.19018      4.23469        -0.008735     -0.061051     -0.040063
O	      6.26543      2.00700      6.27168         0.430208      0.028204     -0.005598
O	      8.25690      3.99716      6.22895        -0.010941     -0.353373      0.061753
O	      2.18439      4.10443      4.23419        -0.043500     -0.168428     -0.071787
O	      4.08100      4.05078      6.34898         0.067491      0.118800      0.038442
O	      6.25109      6.18588      6.43365        -0.110202     -0.039634     -0.065137
O	      6.00724      4.14873      8.37343        -0.099365     -0.044802      0.041106
O	      8.20327      6.27391      8.39350         0.060016      0.075787      0.009846
O	      2.03910      6.24032      6.12713         0.069120      0.059967      0.222126
O	      4.05270      8.22577      6.36842        -0.149151     -0.002566     -0.050378
O	      4.15278      6.09285      8.41802        -0.034386     -0.021767      0.002498
O	      6.18058      8.17877      8.36526         0.049121      0.021680      0.109175
O	      6.25720      6.11651     10.34559        -0.080553      0.012761      0.157987
O	      8.22073      8.17099     10.35525         0.024679      0.249324      0.043743
