# total energy = -218.80067916 eV
 
CRYSTAL
PRIMVEC
0.023285 6.109656 6.372001 
6.197197 0.025150 6.370592 
4.161441 4.102888 -0.013522 
PRIMCOORD
36 1
Li	      0.10020      0.10950      0.01479        -0.063010      0.004044     -0.025056
Li	      1.97516      1.98816      0.06130         0.016889      0.058179     -0.022157
Li	      2.12945      6.10229      8.31994        -0.005621      0.011083      0.001825
Li	      6.20442      2.08883      4.35375        -0.037766      0.016491      0.086900
Li	      6.18495      2.06322      8.34086        -0.033997      0.025740     -0.005355
Li	      6.26400      6.12205      4.25807         0.024338     -0.018366      0.027642
Li	      4.20901      2.08423      6.42592         0.022956     -0.039284     -0.058388
Li	      4.11291      6.09769      6.41979         0.048917      0.041416     -0.044945
Li	      8.24346      8.18227      8.41411        -0.002910     -0.027337      0.041808
Ti	      4.13000      8.04394      4.34351        -0.133546     -0.104944      0.229645
Mn	      8.32190      4.10248      8.39722        -0.119849      0.129842     -0.175609
Cr	      8.25869      4.17714      4.29599        -0.045447      0.016354      0.184259
Cr	      4.19182      4.07461      4.24921         0.013646      0.003467      0.021586
Cr	      6.20615      6.17565      8.47691         0.076377     -0.171749      0.152579
Cu	      4.14026      2.06142      2.13106        -0.020539      0.037457      0.058013
Cu	      6.19493      4.06974      6.36542         0.038043      0.050977     -0.061973
Cu	      2.14267      4.09043      6.42368         0.026345     -0.112583     -0.110010
Ni	      8.24989      6.16808     10.66205        -0.013499      0.104318     -0.140212
O	      4.16462      4.11648      6.24833        -0.335150      0.003329      0.136979
O	      2.10512      6.00882      6.29544         0.010694     -0.057418      0.134886
O	      2.23496      2.17494      2.05733        -0.004548     -0.114772     -0.058458
O	      4.06064      4.06403      2.19865         0.091375     -0.018369     -0.083687
O	      4.13264      2.07321      4.27815        -0.055832      0.007396      0.161831
O	      6.21269      4.13880      4.36964        -0.028410      0.008748     -0.130765
O	      6.21813      2.13173      6.38063         0.024670     -0.092882      0.073175
O	      8.25766      4.13582      6.41972         0.207427      0.009456     -0.022533
O	      2.09007      4.08059      3.99335        -0.047431     -0.113291      0.124549
O	      4.15138      6.13483      4.16194         0.106450      0.208151     -0.025398
O	      6.21911      6.20465      6.51055        -0.068483      0.130839     -0.078139
O	      6.35451      4.13947      8.47415         0.010982     -0.055500      0.210171
O	      8.20233      6.06371      8.55315         0.118488     -0.000805     -0.093985
O	      4.24982      8.15193      6.15197         0.160202     -0.029084     -0.319557
O	      4.17995      6.17607      8.67024        -0.185659      0.012089     -0.154161
O	      6.07806      8.13416      8.57098         0.022532      0.109459     -0.075757
O	      6.14806      6.02799     10.53299         0.016239     -0.043360      0.046868
O	      8.42771      8.24879     10.56526         0.165127      0.010910     -0.006574
