# total energy = -237.23279217 eV
 
CRYSTAL
PRIMVEC
0.011589 6.257797 6.467351 
6.283252 -0.002668 6.481875 
4.171293 4.164010 0.015809 
PRIMCOORD
36 1
Li	     10.41504      4.25698      6.58387         0.009479     -0.038777      0.038529
Li	      8.23912      4.17122      4.44153         0.014891      0.005148     -0.013632
Li	     10.28622      6.30470      8.60868         0.012047      0.025370     -0.028653
Li	      8.34684      4.27947      8.67499         0.044182     -0.065358      0.004365
Li	      6.19762      6.13195      4.42033         0.039299      0.030369      0.014036
Li	      4.24564      4.26850      4.37215        -0.054170     -0.004834     -0.010148
Li	      8.42446      6.16782      6.66726         0.012907     -0.024674     -0.060041
Li	      6.16684      4.23628      6.44347         0.019858     -0.035469     -0.048549
Li	      4.33712      4.04154      8.43728        -0.015508      0.034213      0.001127
Ti	      8.26220      2.29123      6.50813        -0.088781      0.194359      0.084032
Mn	      6.27981      2.09527      4.39413         0.064304     -0.049302      0.032161
V	      4.15073      2.12625      2.31421        -0.030180      0.002196     -0.329965
Cr	      6.28996     10.41032      8.64938        -0.003540      0.016082     -0.034825
Cr	      0.03847      4.15157      4.30089        -0.054839      0.164949      0.090526
Cr	      2.16005      4.15074      6.41408        -0.098398      0.073481      0.096759
Cr	      6.33445      6.17606      8.60731        -0.054397      0.043552     -0.064383
Co	      4.18052      6.23628      6.46405         0.039466      0.044448      0.023924
Cu	      2.14845      6.20681      4.21615        -0.013203      0.102964     -0.068250
O	      2.21046      1.99863      2.01376        -0.054519      0.028409     -0.088959
O	      4.28476      4.01292      2.11051        -0.000793      0.103414     -0.007252
O	      4.17963      1.99989      4.06011        -0.095129     -0.009867      0.269415
O	      6.27081      4.14669      4.15408         0.054558      0.039916      0.020535
O	      6.41280      2.08990      6.51891         0.166642     -0.030957      0.051888
O	      8.38282      4.09014      6.51347         0.058560     -0.355228     -0.126285
O	      2.03772      4.14701      4.43917        -0.085804     -0.164391     -0.038032
O	      4.10665      6.31421      4.49342         0.001514     -0.027246      0.153206
O	      4.11923      4.30416      6.44813         0.041379      0.018502     -0.009414
O	      6.15242      6.30002      6.55619         0.036174     -0.013032     -0.010315
O	      6.28116      4.22106      8.79869        -0.017000     -0.017197      0.057440
O	      8.28563      6.26677      8.57737        -0.032958     -0.015619     -0.151190
O	      2.22010      6.21382      6.59116         0.054529      0.080973      0.212963
O	      4.20022      8.24049      6.48717        -0.054378      0.009299     -0.037939
O	      4.20032      6.33909      8.44402         0.050023      0.009677      0.021360
O	      6.19069      8.32566      8.52789         0.018015     -0.033982     -0.096017
O	      6.40195      6.20853     10.65884        -0.063034     -0.102205     -0.027922
O	      8.46652      8.35029     11.03073         0.078804     -0.039184      0.079504
