# total energy = -236.52416347 eV
 
CRYSTAL
PRIMVEC
-0.013139 6.374026 6.163917 
6.401496 -0.041582 6.190147 
4.242342 4.243013 -0.002038 
PRIMCOORD
36 1
Li	      6.22665      0.09905      6.14091         0.038653      0.042780      0.042197
Li	      8.37449      2.26036      6.13121        -0.055019     -0.045821      0.029953
Li	      8.61621      4.12452      4.33103         0.058946     -0.035609     -0.113919
Li	      6.30458      2.21853      8.07511         0.018495     -0.080922     -0.041104
Li	      6.40026      6.34970      4.19766        -0.004670     -0.036378      0.015996
Li	      8.53858      6.19666      6.26497        -0.009594      0.052828     -0.067924
Li	      6.52635      4.17960      6.28664        -0.063907      0.012925     -0.065334
Li	      4.44649      4.09359      8.24196         0.079771     -0.026188     -0.076277
Li	      6.47244      6.20665      8.20467         0.038614     -0.087919      0.000291
Ti	      4.15226      2.02126      2.07471        -0.267703     -0.121123      0.055634
Mn	      6.42591      8.40210     10.33682         0.033460      0.077281     -0.051568
V	      4.34709      4.26095      4.12037        -0.016259      0.077044     -0.076961
Cr	      8.46018      4.22961      8.15647         0.024883      0.029268      0.072536
Cr	      8.49993      6.34797     10.27087         0.034843     -0.024646      0.055317
Cr	      6.39234      8.42716      6.21497         0.110871      0.116367     -0.037010
Cr	      4.29779      6.34265      6.19077        -0.159517     -0.048048      0.136308
Co	      2.04909      0.07662      1.99049         0.174274     -0.167098      0.039090
Ni	      6.31776      4.26946     10.25708         0.061601     -0.099769      0.124694
O	      2.24905      2.17073      2.03175         0.092000     -0.349890     -0.023696
O	      4.16482      4.14727      2.11783        -0.191172     -0.076270     -0.057773
O	      4.27601      2.24464      4.01417        -0.013391     -0.105042     -0.018658
O	      6.14145      4.26927      4.07847         0.122565      0.068087     -0.152313
O	      6.39000      2.09440      6.00669        -0.037732      0.045418     -0.044268
O	      8.50004      4.21973      6.24524         0.005762      0.002936     -0.132556
O	      2.24435      4.29766      4.14405         0.011575      0.027619      0.026033
O	      4.18097      6.27992      4.17348        -0.040601     -0.040896      0.129800
O	      4.16764      4.31815      6.10061         0.017367      0.064410     -0.001313
O	      6.26719      6.47214      6.17608         0.045468     -0.022736      0.056971
O	      6.49110      4.17381      8.29206        -0.025713     -0.011568     -0.162520
O	      8.53650      6.21888      8.30575         0.001035      0.008727      0.015098
O	      2.25033      6.24004      6.14291        -0.033188      0.020041      0.174189
O	      4.35907      8.39078      6.20931         0.010904     -0.009043      0.109280
O	      4.18295      6.49926      8.21723         0.070272      0.188549      0.069934
O	      6.20881      8.56531      8.25475         0.056228      0.467077      0.022665
O	      6.50338      6.30626     10.31352        -0.030684      0.104745     -0.038729
O	      8.50012      8.34922     10.26951        -0.158439     -0.017137     -0.014062
