# total energy = -91.15050997 eV
 
CRYSTAL
PRIMVEC
0.000277 4.189509 0.000070 
-4.134618 -0.000204 3.966309 
4.134492 0.000350 3.966187 
PRIMCOORD
16 1
Li	     -1.03993      3.13953      4.94592         0.012297      0.004763      0.004824
Li	     -3.09866      1.04315      4.94585        -0.004530      0.010933      0.007371
Li	      1.03448      1.04331      4.97070         0.000273      0.011443     -0.002174
Li	     -1.03692      3.13816      1.00525         0.008387      0.008602     -0.003875
Mn	      1.00049      3.14212      2.97542        -0.046752     -0.005456     -0.001658
Mn	     -1.00082      1.04678      6.94269         0.040375     -0.002416     -0.003902
Ni	     -3.07440      3.14069      2.97382        -0.030241      0.001162      0.008275
Ni	     -1.06122      1.04605      2.97689         0.031645      0.001775     -0.005345
O	      3.04148      3.14178      2.97485        -0.119799     -0.001722      0.005809
O	      1.09395      1.04862      2.97676         0.109180     -0.011536     -0.003936
O	      0.97241      1.04652      6.94096        -0.075309      0.000256      0.002409
O	     -0.97383      3.14091      2.97655         0.080889      0.001247     -0.004501
O	     -1.03231      1.04675      5.04138         0.007752     -0.002227      0.090639
O	      1.02895      3.14293      1.07430        -0.000424     -0.009291      0.091338
O	      1.03082      3.14308      4.87579        -0.007580     -0.010067     -0.086867
O	      3.10581      1.04609      4.87769        -0.006162      0.002531     -0.098408
