# total energy = -239.69922103 eV
 
CRYSTAL
PRIMVEC
-0.019264 6.344392 6.229130 
6.287017 -0.004596 6.214405 
4.191356 4.219949 -0.003120 
PRIMCOORD
36 1
Li	      8.35440      2.17982      6.19833         0.009444      0.038214     -0.072257
Li	      6.23419      4.38716      2.22151        -0.052377      0.012697     -0.094899
Li	      4.03539      2.12673      2.22678         0.020530     -0.013844     -0.061875
Li	      8.24091      4.24358      4.13875        -0.068319      0.024602     -0.012479
Li	      6.25790      2.24030      4.06798        -0.007962      0.042813     -0.019574
Li	      2.14938      4.07623      2.19985        -0.017145      0.040469     -0.005108
Li	      2.18702      2.07856      3.96184        -0.034246     -0.018969      0.070175
Li	      0.01365      4.20931      4.12188         0.068730     -0.047927      0.017998
Li	      2.10664      6.30922      4.12465         0.035017     -0.025334      0.019852
Ti	      4.05921      6.44847      6.11865        -0.181958      0.200043     -0.203795
Mn	      6.36926      4.18611      6.10873         0.064154     -0.117382     -0.003412
V	      6.29401      6.32314      8.48451         0.008667     -0.034466      0.141537
Cr	     10.44242     10.55033     12.42042         0.013920     -0.026822      0.083044
Cr	      4.26038      6.30243      2.13393        -0.006136     -0.026592     -0.029757
Cr	      4.19416      2.08945      6.15632         0.055009     -0.085452     -0.031830
Cr	      2.09899      4.20379      6.18022        -0.120115      0.076236     -0.023000
Fe	      8.33997      8.47765      8.52332         0.031061     -0.009174     -0.159156
Co	      4.19389      4.11639      4.07986         0.049971      0.016991     -0.164641
O	      1.96321      2.13610      2.01368         0.113069      0.020139      0.044256
O	      4.19292      4.31912      1.93850         0.003342     -0.043855      0.032759
O	      4.18326      2.09907      4.21721         0.077573      0.065431      0.021991
O	      6.22590      4.21693      4.12356        -0.147323      0.044257     -0.065771
O	      6.19937      2.01221      6.31150        -0.049070     -0.088061     -0.037338
O	      8.49124      4.33550      6.16791         0.072528      0.010129      0.020736
O	      2.15436      4.24451      4.24259         0.045613     -0.003032      0.012647
O	      4.20629      6.33558      4.22972        -0.046671     -0.027305      0.231821
O	      4.11923      4.26349      6.29111        -0.052173     -0.045336      0.012475
O	      6.28873      6.38805      6.34599        -0.050548      0.074702      0.009272
O	      6.21627      4.24148      8.26667        -0.005656      0.105932      0.065028
O	      8.33466      6.40232      8.23971        -0.019697     -0.000325     -0.017748
O	      2.16613      6.25752      6.21568         0.120012     -0.045779      0.037001
O	      4.23709      8.37968      6.19434         0.064721     -0.055405      0.061499
O	      4.32445      6.28365      8.13940        -0.013521      0.007383     -0.010988
O	      6.32801      8.27466      8.23648        -0.009318     -0.027713      0.003111
O	      6.29730      6.29748     10.26194         0.018194      0.015727     -0.022283
O	      8.35097      8.46518     10.34975         0.010679     -0.052990      0.150708
