# total energy = -238.44412574 eV
 
CRYSTAL
PRIMVEC
0.025214 6.331971 6.292691 
6.279805 0.028391 6.289412 
4.189175 4.221852 0.016163 
PRIMCOORD
36 1
Li	      4.15851      4.15116      0.08744         0.015487      0.018170      0.012492
Li	      2.15038      2.18645      0.08849         0.024290      0.056476      0.024564
Li	      2.07641      0.06823      2.04367        -0.000194     -0.006464     -0.008724
Li	      8.42910     10.50881     10.51686        -0.017893      0.020932     -0.001183
Li	      0.07280      2.05200      2.03382        -0.009414     -0.050516     -0.064410
Li	      2.12900      4.17757      2.04533        -0.032052      0.026109      0.012617
Li	     10.44406      8.52578     10.54181        -0.030416      0.016407      0.016248
Li	      4.15514      6.42433      6.37586        -0.008001      0.051674      0.034083
Li	      4.24876      4.33051      8.40437        -0.017034      0.040374      0.018809
Ti	      2.17833      6.43254      4.24527         0.221738      0.076329      0.145967
Mn	      6.24553      6.28407      8.43958        -0.088161     -0.030577      0.115442
V	      8.39113      6.27880      6.32882         0.432928     -0.202640      0.151239
Cr	      4.17719      2.11897      2.11029        -0.087084     -0.312198      0.025737
Cr	      6.31354      2.13692      4.23368         0.108242      0.056788     -0.140187
Cr	      6.28839      4.23990      6.31222         0.067651     -0.163103      0.014443
Cr	      6.27802      8.46675      6.30396        -0.020148      0.079905      0.011749
Fe	      6.13886      6.35187      4.09314        -0.067056     -0.061543      0.041259
Cu	      4.17963      4.25613      4.11587        -0.039062      0.035303      0.086882
O	      2.16405      2.08949      2.19893         0.038347      0.020904     -0.093391
O	      4.20850      4.10814      2.19920         0.010660      0.210773     -0.214035
O	      4.24565      2.02603      4.23262         0.016147     -0.174580     -0.087787
O	      6.26562      4.20783      4.27064         0.177436      0.035029     -0.006415
O	      6.27533      2.23842      6.23467        -0.188840      0.030107     -0.071715
O	      8.28702      4.32654      6.30932        -0.211867      0.087529     -0.047241
O	      2.06552      4.23612      4.28540        -0.051306      0.015353     -0.015977
O	      4.13748      6.44610      4.11240        -0.147241      0.153682      0.025060
O	      4.18253      4.11540      6.18319        -0.127744      0.028003      0.072387
O	      6.28887      6.34385      6.13292         0.058738      0.088169      0.050217
O	      6.23109      4.37184      8.26941         0.021584     -0.006361      0.067479
O	      8.26285      6.33561      8.39633        -0.089849      0.022990     -0.014903
O	      2.19172      6.21681      6.15434        -0.015321      0.034229     -0.157960
O	      4.31372      8.47124      6.43289        -0.007919      0.004670     -0.038390
O	      4.32725      6.40652      8.41513        -0.007376     -0.064318     -0.018482
O	      6.25938      8.34511      8.40989         0.036469      0.028734      0.003566
O	      6.46403      6.46465     10.55300         0.046064     -0.047709      0.011779
O	      8.34385      8.35137     10.51803        -0.011802     -0.118631      0.038779
