# total energy = -236.06526254 eV
 
CRYSTAL
PRIMVEC
-0.010274 6.350952 6.251446 
6.272659 -0.010516 6.251721 
4.182640 4.234809 -0.007901 
PRIMCOORD
36 1
Li	      4.25878     10.36626      6.45137        -0.021223     -0.029262      0.034417
Li	      2.01768      6.39368      8.17540         0.047410      0.038062      0.004570
Li	      4.13706      8.54102      8.15067        -0.027834     -0.011323      0.031718
Li	      0.13138      2.01795      2.10064         0.012637     -0.061869     -0.024271
Li	      2.15865      4.11164      2.09494         0.009051     -0.041826     -0.036420
Li	      4.20676      8.47406      4.27505         0.021744      0.005810      0.011596
Li	      6.06332      8.58770      6.28802        -0.026926      0.029556      0.006916
Li	      4.06938      6.54137      6.31167        -0.050889      0.027405      0.038365
Li	      4.16508      4.31616      8.32135        -0.025118      0.027186     -0.019908
Ti	      8.40726      6.37274      6.42818         0.149028      0.094429      0.171202
Mn	      6.27046      8.45040     10.32799        -0.039626      0.096524      0.009236
V	      2.11980      6.33371      4.22589         0.023337      0.073492      0.173285
Cr	      4.19263      6.31034     10.39287        -0.060990      0.061628     -0.085035
Cr	      2.02397      2.18416      4.07021         0.031166     -0.056645     -0.107087
Cr	      4.15339      4.23502      4.04143         0.190961     -0.109571     -0.038290
Cr	      6.27872      4.23762      6.29369         0.002565     -0.033483      0.021600
Fe	      6.12944      6.31787      8.30432         0.016791      0.017531     -0.016026
Ni	      2.20633      8.41373      6.36560        -0.073081     -0.048826      0.057109
O	      2.07295      2.12616      2.14343         0.017537      0.019340      0.176647
O	      4.20937      4.21823      2.15086        -0.036389      0.052858      0.128637
O	      4.15213      2.06856      4.25232         0.017016      0.026133      0.034455
O	      6.31069      4.32562      4.21842        -0.026959      0.081295      0.085006
O	      6.18938      2.20323      6.11547        -0.108175      0.050495      0.044061
O	      8.31181      4.34373      6.16780        -0.050410      0.195573     -0.060805
O	      2.18749      4.19503      4.17087         0.041100      0.034277     -0.018244
O	      4.16620      6.23066      4.13966        -0.074442     -0.094791      0.000349
O	      4.26791      4.05790      6.16122         0.020295     -0.207444      0.005785
O	      6.38232      6.28029      6.21921         0.102402     -0.016213     -0.016356
O	      6.25698      4.34630      8.23029         0.026773     -0.013597     -0.094834
O	      8.33404      6.36123      8.28280        -0.007447     -0.008667     -0.279919
O	      2.06728      6.38818      6.12001        -0.022716     -0.048221     -0.182181
O	      4.15024      8.45443      6.21743         0.037691      0.013106      0.013753
O	      4.20677      6.31389      8.42935        -0.059695     -0.006220      0.065967
O	      6.28864      8.34752      8.45476         0.018180     -0.060178      0.016232
O	      6.26446      6.33218     10.33768         0.033741     -0.032837      0.005283
O	      8.26158      8.52285     10.48701        -0.107508     -0.063725     -0.156813
