# total energy = -242.02526007 eV
 
CRYSTAL
PRIMVEC
0.038488 6.242980 6.277942 
6.347607 0.032392 6.284443 
4.246721 4.181488 0.006383 
PRIMCOORD
36 1
Li	      2.14226      2.07676      0.06559        -0.023008      0.003064      0.080801
Li	      2.22047      6.26291      8.37819         0.006780      0.030253      0.033567
Li	      4.25779      8.27715      8.37128        -0.062611     -0.001573      0.021129
Li	      8.51792     10.33876     10.40496        -0.030907     -0.073426      0.001210
Li	      6.42824      2.20921      8.38822         0.057087      0.048155     -0.003061
Li	      8.40369      4.16664      8.41930         0.001266     -0.025399     -0.002281
Li	      6.29588      4.21422     10.38360        -0.098441      0.005701      0.013804
Li	      6.40585      8.38130      6.36750         0.020655     -0.013683      0.038276
Li	      8.50706      8.38415      8.45764         0.019355      0.027507     -0.011805
Ti	      4.23974      4.04609      0.18543        -0.108032     -0.136175      0.445097
Mn	      6.47217      4.12099      6.39006         0.009283     -0.016233     -0.037620
V	      2.12369      2.14430      4.06013         0.041809     -0.014629     -0.124841
Cr	      6.42827      8.35634     10.41271        -0.112210      0.154503      0.101169
Cr	      4.24806      4.19605      4.12092         0.135305     -0.100659     -0.023691
Cr	      4.25844      2.12637      6.31931        -0.008638      0.079250     -0.005466
Cr	      8.49778      6.30266     10.42815         0.075446     -0.029980     -0.072705
Fe	      4.18134      6.32889      6.35632        -0.034048     -0.068307     -0.116081
Fe	      6.35509      6.26414      8.39206        -0.114226     -0.032314     -0.059200
O	      2.10511      2.09528      2.19225         0.009986     -0.001280     -0.063645
O	      4.28992      4.16667      2.03343        -0.017518     -0.013920     -0.420602
O	      4.26350      2.18096      4.27640         0.027207      0.025541      0.034399
O	      6.29128      4.19777      4.18464         0.001547      0.007017     -0.061974
O	      6.25803      2.00055      6.22267         0.053945     -0.120794     -0.041081
O	      8.64711      4.29319      6.25605         0.189640     -0.032780      0.037461
O	      2.26695      4.17681      4.15938        -0.002135      0.048963     -0.029081
O	      4.21529      6.21257      4.27123        -0.039446      0.059613     -0.034646
O	      4.25455      4.19152      6.14074        -0.056436     -0.021544      0.032715
O	      6.39671      6.31238      6.24525         0.096772      0.088241     -0.022541
O	      6.35723      4.31032      8.42950         0.019330     -0.102651      0.046948
O	      8.41903      6.29442      8.35472         0.036029      0.005890      0.079543
O	      2.11043      6.25193      6.18523        -0.099871     -0.029937     -0.024788
O	      4.25737      8.39971      6.25367         0.015931      0.241488      0.002747
O	      4.31206      6.25937      8.23542        -0.004763     -0.003189      0.205252
O	      6.35960      8.24983      8.47074        -0.008494      0.102008     -0.072759
O	      6.48005      6.33692     10.49489        -0.041167     -0.072423      0.058376
O	      8.38548      8.28097     10.48942         0.044578     -0.016299     -0.004625
