# total energy = -244.13138892 eV
 
CRYSTAL
PRIMVEC
-0.021918 6.249705 6.297121 
6.243547 -0.018971 6.294381 
4.160259 4.162448 -0.010426 
PRIMCOORD
36 1
Li	      2.09983      8.28173      6.31844        -0.013664      0.050977      0.033610
Li	      2.05483      6.26237      8.28457         0.044215      0.028584      0.056665
Li	      4.15234      8.30587      8.24787         0.001343     -0.043315      0.063157
Li	      6.28553      8.27255     10.41344        -0.040636      0.084248     -0.086220
Li	      2.07517      4.12254      2.05816         0.017863     -0.024514      0.035713
Li	      8.34897      6.19781      6.35856         0.003890     -0.028139     -0.046266
Li	      4.10321      8.36865      4.27771        -0.036001      0.001431      0.011000
Li	      8.24674      6.31951     10.57003         0.027885      0.034735      0.003807
Li	      6.11619      8.42098      6.35984        -0.000951      0.010691     -0.042401
Ti	      4.09495      4.06995      4.13771        -0.142456     -0.170655     -0.009415
Mn	      6.32031      4.07655      6.29457         0.061636     -0.025034     -0.016994
V	      4.15219      6.21025     10.47331        -0.123741      0.149336      0.001498
Cr	      0.02825      6.20889      6.30010        -0.026945      0.018693      0.010144
Cr	      4.15268      6.26152      2.12249         0.029777     -0.088918     -0.005220
Cr	      2.06883      2.08827      4.18786         0.065111     -0.130631     -0.006510
Cr	      8.27806      8.31640      8.38524        -0.123716      0.084605      0.002756
Cr	      6.28155      6.23399      8.39918        -0.057715      0.093794     -0.041587
Co	      4.02015      6.36219      6.27689        -0.022630      0.076746      0.120075
O	      1.95686      2.11918      2.24801        -0.019244      0.001955     -0.027731
O	      4.13936      4.23247      2.12489        -0.021689      0.023674      0.048214
O	      4.10379      2.11879      4.15668        -0.040243      0.250050      0.000317
O	      6.22822      4.21672      4.11979        -0.074322      0.039600      0.140450
O	      6.24648      2.07916      6.42594        -0.015659     -0.041490      0.050578
O	      8.30160      4.15075      6.23124        -0.051311     -0.001419      0.030265
O	      2.24846      4.07964      4.25338         0.178032      0.043672      0.006717
O	      4.21305      6.12075      4.14940        -0.015779     -0.031257     -0.066947
O	      4.31937      4.15925      6.19718        -0.072684      0.022402      0.071350
O	      6.22140      6.07689      6.32193        -0.043254     -0.006013     -0.053388
O	      6.16995      4.14056      8.45478         0.052018      0.006012     -0.006368
O	      8.30678      6.31645      8.42834         0.040140     -0.082624      0.029573
O	      1.99849      6.26060      6.28261         0.067518     -0.006752     -0.033346
O	      4.12654      8.39069      6.27933         0.025853     -0.047587     -0.033083
O	      4.24890      6.18562      8.40242         0.097966     -0.087638     -0.090182
O	      6.31580      8.18650      8.34087         0.039101     -0.031964     -0.036635
O	      6.12292      6.27572     10.51297         0.141411     -0.007649      0.001917
O	      8.25350      8.45579     10.36101         0.048879     -0.165606     -0.115512
