# total energy = -240.72553699 eV
 
CRYSTAL
PRIMVEC
-0.009848 6.218434 6.467138 
6.181474 0.009651 6.446714 
4.119141 4.131043 0.008560 
PRIMCOORD
36 1
Li	      4.12916      4.13262      0.18416        -0.052014      0.002737     -0.061583
Li	      2.08212      2.04892      0.23745        -0.020603      0.057064      0.025507
Li	      6.01480      4.17075      2.10161         0.028127     -0.013625     -0.048659
Li	      4.09999      2.22120      2.05091        -0.044674     -0.029191     -0.025980
Li	      0.05722      1.95883      2.03949        -0.017306      0.052349     -0.064465
Li	      4.15546      4.13780      4.00397        -0.023664     -0.011366      0.012226
Li	      6.23666      4.09918      6.43623        -0.013923      0.010827     -0.072000
Li	      6.09326      8.31443      6.55664         0.027068     -0.008529      0.028386
Li	      6.19011      6.21963      8.62058         0.012443      0.006419      0.014486
Ti	      4.13529      4.13951      8.53474        -0.116476     -0.016844     -0.342196
Mn	      8.21834      6.16481      6.48653         0.038638     -0.015080     -0.043736
V	      2.06067      6.13366      4.40154         0.070571     -0.107423      0.105996
Cr	      4.10426      6.24465     10.72358        -0.030608      0.060810      0.047687
Cr	      6.14466      2.11027      4.29976        -0.081513      0.021930      0.008385
Cr	      2.06136      2.08208      4.23753         0.021790     -0.002065      0.021925
Cr	      4.12145      8.29932      4.40289         0.077087     -0.022513      0.060462
Cr	      4.13699      6.24489      6.52451         0.000103     -0.017535      0.018623
Cu	      2.09238      4.08401      2.10583        -0.051355      0.044300     -0.065893
O	      2.02858      2.12881      2.27581        -0.047669     -0.089416      0.067672
O	      4.02149      4.15774      2.11257         0.096614      0.019602     -0.016144
O	      4.12038      2.01022      4.21704         0.035292     -0.008185     -0.019376
O	      6.24568      4.14494      4.23691         0.035298      0.007548     -0.037258
O	      6.02377      2.10780      6.28214        -0.038669      0.015235     -0.012429
O	      8.20565      4.24730      6.23990         0.016656     -0.001298     -0.171876
O	      1.99552      4.14106      4.41367        -0.053217      0.032528      0.150632
O	      4.16835      6.26220      4.49323         0.040703      0.026022      0.003994
O	      4.12530      4.11564      6.64181         0.032391      0.014527      0.414724
O	      6.21992      6.19865      6.33087         0.014180     -0.027623     -0.000115
O	      6.12528      4.14296      8.80291        -0.137204     -0.014017      0.035509
O	      8.24541      6.26608      8.75551        -0.023111      0.255704      0.033270
O	      2.14473      6.23604      6.35164         0.050815     -0.036613     -0.006584
O	      4.10406      8.19536      6.39073         0.006951     -0.024076      0.017969
O	      4.17200      6.10589      8.59747        -0.013995     -0.169179     -0.053435
O	      6.32625      8.27676      8.76279         0.187721     -0.011123     -0.012680
O	      6.14269      6.23408     10.76980        -0.031330     -0.024537      0.004865
O	      8.21939      8.28590     10.71050         0.004883      0.022636     -0.017908
