# total energy = -245.33505026 eV
 
CRYSTAL
PRIMVEC
0.079397 6.398075 6.223054 
6.446802 0.090948 6.211780 
4.345667 4.305688 0.013062 
PRIMCOORD
36 1
Li	     10.58319      4.44578      6.27595        -0.012011      0.013260      0.000378
Li	      4.26761      2.28541      2.20388        -0.000887      0.046714     -0.062264
Li	      8.56361      4.55124      4.30036        -0.042684     -0.049665     -0.048248
Li	      2.27683      4.26061      2.02900         0.020835      0.002524      0.068609
Li	      2.39283      2.13131      4.08495         0.044513      0.030089     -0.015920
Li	      4.34750      4.15910      4.07399        -0.014116      0.001756      0.049301
Li	      8.68288      6.28053      6.11430        -0.002152     -0.073410      0.096704
Li	      6.65725      4.32431      6.12037        -0.017887      0.003558     -0.018819
Li	      6.54817      6.49014      8.33892        -0.013363      0.013066     -0.018860
Ti	      4.44746      4.33950      8.26908         0.197663      0.001744     -0.342804
Mn	      6.50397      8.55951      6.21157        -0.008670     -0.047193     -0.074702
V	      4.49315      6.41560      6.20167         0.169531      0.010480     -0.060736
Cr	      8.61931      2.33211      6.24014         0.047156      0.050900      0.079452
Cr	      6.45731      4.34285      2.13764        -0.031832      0.034429      0.026278
Cr	      6.36163      2.21872      4.18737        -0.094613      0.008407      0.066296
Cr	      4.37104      6.39109      2.05597         0.047885      0.058217      0.049255
Cr	      8.65021      6.49403     10.35571         0.044996     -0.122115      0.009043
Fe	      6.50790      4.48858     10.36294         0.030150     -0.018364      0.021267
O	      2.05093      2.06119      2.03071         0.001870     -0.041776      0.000696
O	      4.48339      4.42701      2.04854        -0.004526     -0.013381      0.032556
O	      4.40634      2.17629      4.15975         0.084470     -0.010194      0.021177
O	      6.47541      4.22707      4.07350         0.029054     -0.029561      0.014984
O	      6.59067      2.23335      6.23163         0.015046     -0.022305     -0.003776
O	      8.64325      4.26746      6.25710        -0.004393     -0.054182     -0.006536
O	      2.18773      4.43117      4.12574         0.063730      0.086545     -0.037934
O	      4.24939      6.53118      4.16495        -0.055349     -0.043886      0.031135
O	      4.31067      4.42957      6.34615        -0.010980      0.025574      0.196977
O	      6.28519      6.45439      6.21267        -0.125380     -0.046924     -0.014053
O	      6.33931      4.26232      8.27996        -0.351544     -0.000625     -0.108809
O	      8.75272      6.63594      8.33303        -0.000509      0.111252     -0.010448
O	      2.41182      6.49758      6.21012        -0.015834      0.039496      0.000536
O	      4.30279      8.42920      6.28955        -0.081336     -0.012782      0.080585
O	      4.29395      6.31143      8.21220         0.021606     -0.105649     -0.012196
O	      6.65556      8.67584      8.36360         0.051532      0.008556      0.016218
O	      6.65228      6.53513     10.36072         0.032411      0.147446      0.019520
O	      8.59746      8.56350     10.36062        -0.014383     -0.002000     -0.044862
