# total energy = -247.00928562 eV
 
CRYSTAL
PRIMVEC
0.010127 6.262314 6.294216 
6.328028 -0.003055 6.307468 
4.211030 4.176118 0.005506 
PRIMCOORD
36 1
Li	      6.38641      8.28326     10.52359         0.038890      0.007569      0.027801
Li	      2.04178      4.28672      2.28537        -0.027048      0.073258      0.043166
Li	      6.18600      6.36240      4.25465        -0.007462     -0.001514      0.021587
Li	      4.12212      4.28771      4.24198        -0.015030      0.004274      0.021335
Li	      8.37734      6.30147      6.36002        -0.055379     -0.009923      0.044138
Li	      0.10422      4.13296      4.16542        -0.010601      0.006748     -0.013115
Li	      2.14081      6.18577      4.13626         0.002684      0.020019     -0.047408
Li	      4.26308      6.22640      6.09851         0.030998     -0.053181     -0.109921
Li	      6.46345      6.18584      8.48291         0.107834     -0.056993      0.072303
Ti	      4.21122      2.07720      2.21206         0.003389     -0.038667      0.578527
Mn	      4.28225      6.27024     10.52123         0.047605      0.007402      0.057797
V	      6.27943      4.27692      6.23121         0.186958     -0.177860     -0.132137
Cr	      6.32742      6.28450     12.54664        -0.291976      0.108781     -0.058572
Cr	      8.48434      8.30112     12.51469        -0.106250      0.243499     -0.080125
Cr	      6.30236      4.16778      2.16953         0.012622     -0.090453      0.088839
Cr	      4.17201      6.28710      2.20583        -0.039009      0.009970     -0.155211
Cr	      2.14533      4.08584      6.16969         0.177862     -0.077203      0.188872
Cr	      8.43564      8.30482      8.43884        -0.016687     -0.051912     -0.023538
O	      2.17457      2.00445      1.98882         0.044232     -0.049039      0.009099
O	      4.27812      4.14515      2.04280         0.021193     -0.040057     -0.039237
O	      4.23394      2.12243      4.00746        -0.010526      0.039352     -0.538458
O	      6.31819      4.15441      4.20218         0.021467      0.023086      0.060488
O	      6.44536      2.09076      6.37754         0.148630     -0.106076      0.003274
O	      8.45036      4.06916      6.38891         0.210250     -0.203160     -0.104524
O	      2.12693      4.15555      4.29181        -0.019850      0.033265     -0.042335
O	      4.23148      6.26588      4.09008        -0.007204      0.012758      0.051052
O	      4.19041      4.17006      6.40765        -0.450301      0.016206      0.108118
O	      6.34474      6.22301      6.31924        -0.025256      0.428981     -0.074227
O	      6.22271      4.11158      8.29253        -0.133833     -0.006802     -0.002768
O	      8.53103      6.34590      8.39840         0.055250      0.037082      0.049906
O	      2.01961      6.24997      6.40672         0.033884     -0.077260     -0.020589
O	      4.22229      8.43509      6.37036         0.072738     -0.035966      0.012247
O	      4.11802      6.31546      8.34077        -0.090266      0.059169     -0.016311
O	      6.28337      8.39530      8.32374        -0.051491      0.054930     -0.061332
O	      6.33357      6.29434     10.61351         0.103907     -0.039934      0.030229
O	      8.42307      8.33368     10.49799         0.037777     -0.070347      0.051028
