# total energy = -45.43702030 eV
 
CRYSTAL
PRIMVEC
2.055958 2.056142 0.000004 
-4.222134 4.222282 0.000093 
0.000031 -0.000029 3.957104 
PRIMCOORD
8 1
Li	     -1.10213      3.15513      0.98765        -0.042097      0.043717      0.001127
Li	     -3.18107      5.23749      0.98765         0.040121     -0.044103      0.001834
Mn	      0.99724      3.11346      2.96618         0.001554      0.000627     -0.000108
Ni	     -1.11456      5.22395      2.96645         0.001189      0.003164     -0.004757
O	     -0.99114      3.04575      2.96617         0.121868     -0.122564     -0.000315
O	      0.92999      1.12527      2.96615        -0.124484      0.120544      0.000079
O	     -1.11415      5.22445      0.98756         0.000527      0.001028      0.003815
O	      0.99721      3.11413      0.98770         0.001323     -0.002413     -0.001675
