# total energy = -243.52220992 eV
 
CRYSTAL
PRIMVEC
0.041425 6.278271 6.273330 
6.326598 0.021229 6.292553 
4.238840 4.218870 -0.006408 
PRIMCOORD
36 1
Li	      4.22604      4.23434      0.09040        -0.032705      0.059765     -0.025928
Li	      6.18919      4.26215      2.04385        -0.017282     -0.028091      0.007150
Li	      6.25642      2.19838      4.24178         0.011940      0.008294      0.021529
Li	      4.23426      6.09569      2.06835        -0.036043     -0.047202      0.003627
Li	      2.26700      4.21848      1.98107        -0.042031      0.053331     -0.016335
Li	      4.30388      4.15444      4.13240         0.017858      0.013227      0.024427
Li	      4.31124      2.17702      6.32028         0.017061     -0.014110     -0.003191
Li	      6.30286      4.16331      6.28205         0.066445      0.016203      0.014021
Li	      4.19519      6.23523      6.28283         0.028525     -0.003664     -0.028332
Ti	      6.32032      6.24802      4.26018        -0.187456     -0.079163      0.256798
Mn	      2.19353      6.22814      4.21238        -0.012069      0.043578     -0.159378
Mn	      6.38177      6.30579      8.31494         0.231474     -0.009066     -0.048909
V	      8.31260      2.13041      6.37558        -0.165528      0.063182     -0.037583
Cr	      4.22248      2.20015      2.04611         0.086299     -0.010659      0.056640
Cr	      8.46868      4.27313      4.25717         0.019571     -0.030743      0.089394
Cr	      4.28064      8.41495      4.20748        -0.022327     -0.058037     -0.065334
Cr	      4.24009      4.22400      8.29932        -0.085633     -0.098215      0.063599
Co	      2.18918      4.24353      6.26175         0.271313      0.299232      0.003967
O	      2.22103      2.11317      2.06089        -0.040162     -0.025410      0.022830
O	      4.23705      4.11160      2.10693         0.021337     -0.085293      0.005953
O	      4.14574      2.06996      4.08667         0.010372     -0.047273     -0.020940
O	      6.43465      4.35456      4.17624        -0.000582      0.120331     -0.049884
O	      6.53608      2.11034      6.30072        -0.004280     -0.018472      0.027094
O	      8.42765      4.10236      6.22846         0.031152     -0.034921     -0.039741
O	      2.04163      4.11228      4.23224        -0.052978     -0.128096     -0.579717
O	      4.39365      6.38109      4.09654         0.124462      0.041825      0.019410
O	      4.29104      4.21954      6.37984        -0.218943      0.025101      0.026056
O	      6.37764      6.40402      6.12626         0.009294     -0.492931     -0.297019
O	      6.25054      4.33802      8.48509         0.015960      0.058797      0.007989
O	      8.34622      6.42120      8.37434        -0.038087      0.095978     -0.047027
O	      2.17746      6.34963      6.28927        -0.001494      0.256821      0.102860
O	      4.10489      8.34898      6.26166         0.209578      0.051901      0.041756
O	      4.40802      6.30466      8.45772        -0.085909      0.034794     -0.009666
O	      6.37495      8.31572      8.28820        -0.048561     -0.098369      0.676410
O	      6.28668      6.22579     10.52783        -0.027903     -0.024522      0.031516
O	      8.55406      8.49163     10.49901        -0.052668      0.091878     -0.074041
