# total energy = -238.97515139 eV
 
CRYSTAL
PRIMVEC
0.039568 6.235182 6.213552 
6.493792 -0.016986 6.269686 
4.317595 4.183212 -0.000328 
PRIMCOORD
36 1
Li	      6.56816     10.20440      8.29563         0.031526      0.095115     -0.023504
Li	      4.62003      8.27439      8.24562        -0.001386      0.006775     -0.026640
Li	      6.45974      8.38992     10.12794        -0.027273      0.055692      0.064340
Li	      2.27481      4.18627      2.06591         0.009935     -0.044555     -0.004218
Li	      4.40812      4.07819      4.10262         0.046031     -0.050327     -0.025734
Li	      6.52017      8.35915      6.44061         0.039967     -0.000894     -0.147133
Li	      4.33428      6.23447      6.48335         0.001783     -0.007682     -0.021545
Li	      8.43111      8.42137      8.24628         0.005056     -0.009416     -0.035972
Li	      6.35667      6.46712      8.24497        -0.029008     -0.076584     -0.112536
Ti	      0.08207      4.16430      4.11541         0.080624     -0.068871     -0.307092
Mn	      8.62530      6.27143      6.30045        -0.012257     -0.054259     -0.026404
Mn	      6.43547      4.19721      6.28369         0.022603     -0.038195      0.040802
V	      2.20276      2.05205      4.08751        -0.073508      0.049656     -0.026663
Cr	      2.19574      2.09270      0.07073        -0.118993      0.122291      0.157880
Cr	      4.35025      6.23847     10.26923        -0.043081      0.016821      0.219947
Cr	      4.31736      6.19908      2.07124         0.129225      0.535641     -0.024669
Cr	      8.66229      6.24247     10.39338         0.039829     -0.008163     -0.005932
Cu	      4.45917     10.31851      6.31331         0.015655      0.006978     -0.144668
O	      2.01880      2.13235      2.10089        -0.000445     -0.006630     -0.111784
O	      4.31112      4.25379      1.99029        -0.037454     -0.348630      0.161198
O	      4.25490      2.00740      4.27032         0.088109      0.034387      0.109971
O	      6.63857      4.28150      4.10902        -0.017279     -0.114040     -0.020950
O	      6.61168      2.23043      6.33610        -0.004953     -0.117687      0.043790
O	      8.51286      4.21465      6.19963        -0.106112      0.005569     -0.026289
O	      2.03347      4.17338      4.21037        -0.167226      0.111546      0.027629
O	      4.26207      6.29722      4.08511        -0.100082     -0.014600     -0.011588
O	      4.49268      3.99426      6.20950        -0.057750     -0.000777      0.004346
O	      6.44823      6.13463      6.11249        -0.038946      0.064095      0.174170
O	      6.51615      4.06503      8.50632         0.005186      0.059432      0.324200
O	      8.79661      6.19675      8.33649        -0.020720      0.003336     -0.017432
O	      2.18508      6.37170      6.09940         0.198912     -0.079801     -0.078974
O	      4.19805      8.28524      6.12928         0.075800     -0.080796      0.000352
O	      4.41069      6.21967      8.40273        -0.022722      0.033325     -0.073558
O	      6.53014      8.31539      8.28771         0.002852     -0.044971      0.005356
O	      6.56193      6.12965     10.51836         0.047950     -0.038154     -0.010009
O	      8.79863      8.30998     10.51770         0.038154      0.004376     -0.050685
