# total energy = -246.67095708 eV
 
CRYSTAL
PRIMVEC
0.016201 6.243989 6.378364 
6.267277 0.011765 6.382629 
4.197908 4.184807 -0.011795 
PRIMCOORD
36 1
Li	      6.32855      6.30192     12.65558         0.000927      0.036130      0.049541
Li	      2.17993      6.18082      8.46643        -0.019538     -0.006335      0.031594
Li	      4.18254      0.04098      4.27920         0.006249      0.017683     -0.009279
Li	      6.34225      6.21044      4.34417        -0.005781     -0.036046     -0.005783
Li	      8.26418      6.18244      6.36390        -0.095474     -0.022714      0.013205
Li	      6.35635      4.21909      6.26900        -0.037357     -0.011477     -0.046918
Li	      2.04143      6.25994      4.33410         0.043579     -0.007077     -0.000655
Li	      6.28690      8.37665      6.41684         0.006147     -0.009950      0.044949
Li	      6.28058      6.29052      8.50380         0.022554     -0.026937     -0.034213
Ti	      4.28025      6.22089      6.35603         0.506547     -0.159823     -0.032382
Mn	      0.02232      2.03310      2.06868        -0.044776      0.044422     -0.095277
Mn	      8.32755      4.25178      8.47404         0.059628      0.011571      0.015016
Mn	      8.34014      8.30684      8.47744         0.026003     -0.063296     -0.012984
V	      4.21035      4.17147      4.29612         0.008477     -0.042764      0.050028
Cr	      8.38248      8.35789     12.74052        -0.098121      0.106888      0.038826
Cr	      4.23419      8.29985      8.50964         0.014722      0.089491      0.091554
Cr	      6.28692      8.29292     10.66122        -0.071227      0.077712     -0.029501
Cr	      6.32511      4.27850     10.66371         0.027240     -0.062376     -0.061857
O	      2.17393      2.18614      2.02734         0.055923      0.021112     -0.063616
O	      4.06343      4.09515      2.22714        -0.034062     -0.071981      0.020218
O	      4.24053      2.08967      4.15280         0.094643      0.024583     -0.086814
O	      6.14563      4.07591      4.23758        -0.026324     -0.095886     -0.011699
O	      6.37974      2.08317      6.30114         0.081096      0.028880     -0.103404
O	      8.33629      4.14098      6.57277         0.061984     -0.065372      0.026380
O	      2.08716      4.20888      4.08337        -0.104401     -0.031247     -0.021312
O	      4.23311      6.32566      4.32270        -0.064338      0.086825      0.156630
O	      4.12242      4.25532      6.30384         0.028890      0.197645      0.095012
O	      6.15092      6.28582      6.33660        -0.491175     -0.018374      0.035443
O	      6.34646      4.19015      8.65524         0.055689      0.072646      0.033101
O	      8.37020      6.20484      8.43338        -0.033376     -0.115904      0.057930
O	      2.24227      6.35516      6.37928         0.058108     -0.006732      0.021043
O	      4.18155      8.31303      6.37504        -0.031616     -0.028543     -0.039279
O	      4.19697      6.28391      8.35358         0.010094      0.061496     -0.076129
O	      6.24117      8.32969      8.62065        -0.043400      0.009412     -0.052162
O	      6.26614      6.23789     10.68534         0.013935      0.026191     -0.035596
O	      8.41574      8.40001     10.68261         0.018533     -0.029853      0.038391
