# total energy = -237.87047133 eV
 
CRYSTAL
PRIMVEC
0.010262 6.155206 6.409806 
6.268692 -0.019907 6.440078 
4.169674 4.114005 -0.003847 
PRIMCOORD
36 1
Li	      2.09128      2.05774      0.00721         0.022285      0.008420      0.015800
Li	      6.30415     10.15862      8.52457        -0.007060      0.006177     -0.024980
Li	      6.22036      2.19127      4.11570        -0.038513     -0.004109     -0.078146
Li	      8.34028      4.10552      8.51995         0.006047      0.023032     -0.047379
Li	      4.29031      4.01925      4.50993         0.073031     -0.024737     -0.013934
Li	      6.15935      4.12822      6.31647         0.043865     -0.037472     -0.001908
Li	      2.23848      4.11483      6.52425        -0.070490     -0.009039      0.045465
Li	      4.12555      5.94096      6.55857        -0.047917      0.037986      0.007658
Li	      4.09147      4.12443      8.38915        -0.007047     -0.025562      0.004697
Ti	      6.28317      2.04135      8.49170        -0.096917      0.061685     -0.209522
V	      4.18956      8.19869      4.35344        -0.099387     -0.121818     -0.075208
Cr	      6.28536      0.01034      6.44444         0.034936      0.079904      0.137333
Cr	      4.18186      8.19206      8.48661        -0.052500      0.047245     -0.092409
Cr	      4.14546      0.00394      4.25662         0.123922     -0.150444      0.030196
Cr	      6.26383      6.12062      4.33101        -0.031683      0.065525      0.065054
Cr	      2.11977      6.15166      4.34672        -0.018296      0.062003      0.013395
Co	      6.26735      6.15455      8.38222         0.191827     -0.133827      0.111579
Cu	      4.14427      2.11823      6.43541         0.044619     -0.091118      0.015643
O	      4.19783      4.01402      6.42549        -0.006510      0.129986      0.017185
O	      2.00199      2.06810      2.26818        -0.010157      0.015348     -0.024605
O	      4.16243      4.14379      2.00742        -0.001794     -0.003019      0.022716
O	      4.07694      2.00134      4.06923         0.028750      0.047624     -0.085222
O	      6.36822      4.16125      4.28301        -0.080786     -0.003921     -0.008050
O	      6.27644      2.04178      6.61204         0.085735      0.054201      0.211363
O	      8.45386      4.22177      6.27082         0.005140     -0.044606      0.027698
O	      1.89733      4.10906      4.33493         0.075120     -0.018682     -0.028875
O	      4.17433      6.19942      4.24970         0.036460     -0.041391      0.026049
O	      6.32209      6.12968      6.34642        -0.178661     -0.017168     -0.159579
O	      6.29773      4.01296      8.77118        -0.023009     -0.064924      0.048935
O	      8.50912      6.11565      8.79413        -0.013758      0.022445      0.113855
O	      2.01466      6.18425      6.29181         0.018408      0.010386      0.010750
O	      4.13133      8.29742      6.39360        -0.014362      0.159487     -0.221172
O	      4.17734      6.19656      8.63062         0.049851     -0.006420     -0.035900
O	      6.14921      8.14305      8.55988        -0.067303      0.071719      0.003963
O	      6.31525      6.08999     10.77209         0.024398     -0.097978      0.158794
O	      8.54257      8.19883     10.75014         0.001753     -0.006939      0.018762
