# total energy = -237.80664723 eV
 
CRYSTAL
PRIMVEC
-0.022864 6.358292 6.264674 
6.190226 -0.016780 6.258901 
4.115392 4.223718 0.000065 
PRIMCOORD
36 1
Li	      8.16309      2.22440      6.21697        -0.075619      0.072110     -0.025105
Li	      8.14551      4.23243      4.33317        -0.021338     -0.017695      0.009981
Li	      6.14657      2.21131      4.29562        -0.007956      0.040648      0.100925
Li	      8.11863      4.27906      8.20958        -0.033605      0.085773     -0.023256
Li	      6.26664      6.24378      4.31513         0.021291     -0.051496      0.018342
Li	      8.15676      6.21560      6.24432         0.024896     -0.046469      0.017681
Li	      6.29357      4.29123      6.23412        -0.008166      0.036125      0.014119
Li	      6.22042      8.32335      6.27317         0.052242     -0.072533     -0.003482
Li	      6.22432      6.25039      8.18469         0.045620     -0.076287     -0.009714
Ti	      8.15972      6.35938     10.41011        -0.196853      0.059704     -0.346199
V	      4.12578      2.08542      2.11998         0.047974     -0.140237      0.443805
Cr	     10.21630      4.23896      6.26531        -0.189296      0.206992     -0.072182
Cr	      2.05635      6.34639      8.35618         0.035075     -0.016746      0.083814
Cr	      4.12856      4.18478      4.23639        -0.015192     -0.057312      0.104666
Cr	      0.01930      4.21892      4.17828        -0.001690      0.024645     -0.169946
Cr	      4.19618      6.33821      6.27899         0.142681     -0.213546     -0.110019
Co	      6.20904      2.19024      8.21870        -0.088629      0.118323     -0.038865
Ni	      4.11932      4.20813      8.30810        -0.085962      0.013706     -0.072204
O	      2.23065      2.01639      2.07214        -0.000262     -0.086988     -0.005582
O	      4.16235      4.14447      2.09722         0.019395     -0.070115     -0.060025
O	      4.11168      2.21342      4.04926         0.009032      0.143176     -0.201090
O	      6.08955      4.21975      4.05530        -0.016674      0.014884     -0.091225
O	      6.17536      1.96936      6.27986         0.030328     -0.137377      0.025688
O	      8.30267      4.20290      6.26232         0.138955     -0.041686      0.007337
O	      2.06392      4.39065      4.15394        -0.008261      0.160125      0.026604
O	      4.06270      6.35058      4.22701        -0.041343      0.066281      0.059810
O	      4.12611      4.34321      6.21705        -0.012707      0.098866     -0.071753
O	      6.10908      6.35295      6.26049        -0.111449      0.011667     -0.013314
O	      6.15035      4.20734      8.47489         0.099767     -0.058177      0.073433
O	      8.23219      6.38534      8.49983         0.045903     -0.098488      0.320636
O	      2.04602      6.36279      6.24218         0.011947      0.000865     -0.004325
O	      4.11568      8.44372      6.27133         0.002362      0.011146      0.065984
O	      4.06475      6.40264      8.30920        -0.011512      0.151804     -0.169488
O	      6.02445      8.53898      8.33750        -0.045144      0.120225     -0.009936
O	      6.23176      6.22504     10.52813         0.207336     -0.058860      0.017082
O	      8.30810      8.32433     10.39754         0.036854     -0.193054      0.107804
