# total energy = -236.39506859 eV
 
CRYSTAL
PRIMVEC
0.030361 6.160458 6.475899 
6.174076 0.021822 6.484017 
4.111207 4.107710 0.019563 
PRIMCOORD
36 1
Li	     10.22796      4.12783      6.47218        -0.009967      0.011576     -0.015674
Li	      8.28772      8.25896     12.92678         0.022919     -0.010995     -0.002721
Li	      4.09408      8.24667      8.55517         0.026206      0.010335     -0.040242
Li	      6.30415      8.17733     10.89541         0.008485     -0.017017      0.062211
Li	      8.23397      4.12920      8.54895         0.039674      0.012059     -0.065704
Li	      6.15012      6.14490      4.28902        -0.010159     -0.005279     -0.075092
Li	      8.22616      6.28422     10.76757         0.007675      0.003207     -0.033945
Li	      4.14815      6.20981      6.46982        -0.000615     -0.013851     -0.036654
Li	      8.24786      8.20349      8.79421        -0.060802     -0.001734      0.115590
Ti	      4.06196      4.00436      4.31479        -0.038326     -0.270361     -0.038490
V	      2.13727      6.21108      8.55054         0.001494     -0.218832      0.032063
Cr	      8.21503      4.14344      4.35490        -0.057758      0.072469     -0.137737
Cr	     10.23566      6.20783      8.65866        -0.071680     -0.092398      0.177910
Cr	      4.13040      8.18804      4.37624         0.004232     -0.016329      0.053351
Cr	      6.17797      8.19735      6.51476         0.063034      0.043083      0.126897
Cr	      6.23167      6.19775      8.67891         0.004628      0.101947      0.075309
Cu	      8.27280      6.13599      6.54724         0.003063      0.089699      0.057404
Ni	      6.19628      4.11240      6.52231        -0.047356      0.065409      0.003452
O	      1.97451      1.92222      2.13592        -0.003968      0.188166     -0.006507
O	      4.17163      4.17834      2.30027         0.030810      0.029036      0.045211
O	      4.10524      2.14028      4.19194        -0.055116      0.196989     -0.121554
O	      6.14595      4.08624      4.20811        -0.011523      0.024857     -0.001938
O	      6.11105      2.10731      6.63702         0.136364     -0.124937     -0.159746
O	      8.19651      4.18734      6.35050         0.079613     -0.257684      0.154125
O	      2.12554      4.08358      4.44819         0.047723      0.001014     -0.048707
O	      4.12840      6.13096      4.23802        -0.013480      0.017335     -0.023121
O	      4.14167      4.10931      6.29332        -0.117293      0.149053     -0.112021
O	      6.24291      6.17883      6.64657        -0.100394      0.097163     -0.032052
O	      6.20550      4.14556      8.72539         0.003870     -0.072859      0.055272
O	      8.21081      6.18214      8.78756         0.065328      0.009669      0.127111
O	      2.09557      6.07601      6.72064         0.024000      0.036747     -0.076129
O	      4.22434      8.20027      6.36400         0.024204      0.012423     -0.062100
O	      4.11374      6.19252      8.75140         0.051844      0.009396      0.028925
O	      6.20637      8.23426      8.52684         0.001419     -0.057698     -0.078136
O	      6.13521      6.13750     10.70629        -0.030560     -0.020448      0.018026
O	      8.33519      8.32759     10.87356        -0.017588     -0.001211      0.035416
