# total energy = -242.60716428 eV
 
CRYSTAL
PRIMVEC
0.046624 6.278744 6.332135 
6.309355 0.056095 6.322759 
4.225677 4.199082 0.017875 
PRIMCOORD
36 1
Li	      4.21803      4.24647      0.07949        -0.028331      0.013015      0.069210
Li	      8.38164      2.13784      6.33931        -0.060248      0.046393     -0.001527
Li	      2.16319      0.11530      2.11528         0.082608      0.126245      0.010996
Li	      4.20008      8.31650      8.45844        -0.071539     -0.051999      0.053977
Li	      8.37750      4.25103      4.19804        -0.012145      0.010429     -0.049603
Li	      0.04825      2.05416      2.04915         0.016845      0.000217     -0.056823
Li	      6.32930      6.20913      4.25304        -0.050552     -0.051264      0.061577
Li	      6.37795      4.20162      6.27434         0.090659     -0.033614     -0.058170
Li	      4.24968      6.33344      6.39352        -0.005603      0.011342      0.023363
Ti	      6.28073      8.50772      6.44680        -0.183631      0.272552      0.059880
V	      2.19030      4.03190      2.06487         0.062849     -0.024347     -0.099451
Cr	      6.33781      2.18060      4.26008        -0.024227     -0.009248     -0.015277
Cr	      4.27070      4.24302      4.20268         0.076685      0.017347     -0.049241
Cr	      4.24524      2.10009      6.31654         0.039059     -0.020591     -0.045124
Cr	      4.23811      8.35474      4.25274        -0.065968     -0.002844      0.037858
Cr	      6.29848      6.30726      8.41703        -0.012647     -0.046028     -0.017656
Fe	      2.17723      6.29240      4.27703        -0.050235      0.040989      0.040769
Co	      4.25288      4.30050      8.41890         0.050377     -0.013100     -0.027749
O	      2.10291      2.27621      2.08950        -0.032808     -0.209625      0.015549
O	      4.08421      4.23404      2.22203        -0.040640      0.013269      0.046556
O	      4.33118      2.22201      4.29745        -0.059731     -0.115365     -0.043690
O	      6.23139      4.15564      4.19065         0.068571      0.043623     -0.014413
O	      6.24735      2.13562      6.20954         0.083654      0.025609      0.012778
O	      8.45312      4.31077      6.48142         0.002596     -0.069012     -0.157730
O	      2.11271      4.13764      4.23651        -0.024778     -0.010659      0.060589
O	      4.19510      6.31400      4.22201         0.173496      0.014448      0.056263
O	      4.12779      4.14463      6.26225        -0.031176      0.065979      0.036707
O	      6.44024      6.41294      6.41523        -0.055559     -0.025325     -0.042984
O	      6.42220      4.29970      8.54088        -0.070871     -0.052853     -0.031852
O	      8.36898      6.27520      8.36533         0.031064      0.074917      0.023459
O	      2.14990      6.16016      6.42066        -0.024546     -0.274100      0.041519
O	      4.39623      8.38766      6.22777         0.198070      0.019590      0.107887
O	      4.33680      6.28364      8.41623        -0.024676      0.012460      0.013955
O	      6.32309      8.33701      8.41215         0.078675      0.072732     -0.065424
O	      6.41413      6.31297     10.44641        -0.100733      0.014551      0.011076
O	      8.49625      8.45689     10.53568        -0.024565      0.114264     -0.007257
