# total energy = -136.64957751 eV
 
CRYSTAL
PRIMVEC
2.095538 2.052915 3.942835 
4.189200 4.112474 -3.945239 
-6.335011 2.105701 -0.002058 
PRIMCOORD
24 1
Li	     -1.06469      3.09752      0.98776         0.023644     -0.007462     -0.002836
Li	     -5.30132      3.09255      0.99116        -0.026530      0.017614     -0.011746
Li	      1.03508      5.19858      0.97519         0.027758     -0.016532      0.012561
Li	      3.13354      3.08778      0.98035        -0.023931      0.010207      0.006265
Li	      1.00373      5.15399     -2.95678         0.019204     -0.013157     -0.012931
Li	     -3.17590      5.19695     -2.96501        -0.020225      0.010547      0.011892
Mn	      1.03944      3.06471      2.96383        -0.016769      0.017304      0.019759
Mn	      1.02943      3.12089     -0.99582         0.015278     -0.017344     -0.016752
Mn	     -3.18115      3.11909     -0.98831         0.002471      0.000993      0.000109
Ni	      3.12892      5.14904     -0.98847         0.002471     -0.001482      0.001611
Ni	     -1.07745      5.20495     -0.97622        -0.020619     -0.026632      0.020748
Ni	      1.00024      7.19849     -1.00291         0.020327      0.028810     -0.020719
O	     -0.97912      3.15621      2.94498         0.091636      0.070663     -0.005082
O	      5.20914      5.22315     -0.99982         0.021440      0.115775      0.000618
O	     -0.95310      3.03334     -0.98604         0.063346     -0.076488     -0.000289
O	      0.92640      1.09933     -0.98862        -0.063159      0.082480      0.000235
O	      1.04867      5.07491     -0.97745        -0.020029     -0.116005      0.001898
O	      3.04777      3.02926     -0.97656        -0.090007     -0.067806      0.003766
O	     -1.09721      5.17927      1.04934         0.005922     -0.008540      0.086557
O	      1.03428      3.09284      0.98409        -0.000662     -0.002392     -0.001604
O	     -1.08631      5.17535     -2.96095        -0.001009     -0.002389     -0.002029
O	      3.13495      5.15280      1.07097        -0.000574     -0.009982      0.133456
O	     -3.16899      3.11191      0.91691        -0.009268      0.006470     -0.087831
O	     -1.06592      1.03269      0.89735        -0.000716      0.005349     -0.137653
