# total energy = -239.45360859 eV
 
CRYSTAL
PRIMVEC
-0.000831 6.282895 6.159711 
6.401809 -0.007753 6.166499 
4.259253 4.184413 0.003652 
PRIMCOORD
36 1
Li	      4.24121     10.30270      6.17858         0.011856     -0.023374     -0.021925
Li	      4.34602      8.30537      8.21668         0.004834     -0.010758     -0.007970
Li	      4.29872      6.30841     10.13060         0.013452     -0.002199     -0.014896
Li	      2.20794      2.12502      4.14585         0.090063      0.038726      0.044729
Li	      4.25887      4.17638      4.11527         0.016879     -0.002006      0.067636
Li	     10.63755      8.38024     10.29842        -0.009856      0.012711     -0.019367
Li	      6.32019      8.24856      6.24852        -0.033162     -0.054811     -0.013452
Li	      4.20067      4.32811      8.21458        -0.053316     -0.019392     -0.045994
Li	      6.24012      6.31529      8.21238        -0.036779      0.004833     -0.071555
Ti	      2.06641      6.19580      4.19662        -0.107826     -0.207083      0.172127
V	      4.30271      2.14434      6.11556        -0.391022     -0.007447     -0.133565
Cr	      8.57843      8.38860     12.28952         0.192817     -0.051951     -0.061542
Cr	      6.39619     10.43219      8.23189         0.095113     -0.085883     -0.023720
Cr	      6.39071      8.33948     10.22432        -0.073173     -0.004346     -0.349239
Cr	      4.26885      6.28810      2.10519         0.098922      0.028110      0.258335
Cr	      2.18143      4.15741      2.09594         0.002925      0.001762      0.113202
Fe	      6.36706      4.30952      6.12321        -0.032036      0.033289      0.022464
Cu	      4.31668      6.34399      6.18203         0.065365     -0.104692     -0.049286
O	      2.03515      2.10117      2.02678        -0.020982      0.004681     -0.074282
O	      4.25478      4.28787      2.07785        -0.019923      0.032200     -0.006107
O	      4.38727      2.03225      4.19503         0.225522      0.060652      0.120946
O	      6.41871      4.09862      4.09210         0.045119     -0.010698     -0.023884
O	      6.46695      2.17706      6.16843        -0.000445      0.082182      0.071255
O	      8.54330      4.16054      6.23886        -0.138564     -0.028743      0.041146
O	      2.10646      4.28760      4.09246         0.011949      0.269095     -0.081529
O	      4.07957      6.31039      4.10398        -0.128410     -0.025630     -0.226622
O	      4.39101      4.12706      6.19292         0.111657     -0.024776     -0.008131
O	      6.53193      6.23227      6.14794         0.105416     -0.025804      0.030048
O	      6.55693      4.10903      8.15736         0.076224     -0.072539      0.049958
O	      8.64990      6.16848      8.24204         0.162190     -0.017086      0.014121
O	      1.99778      6.35473      6.14340        -0.198207      0.073534     -0.170617
O	      4.10613      8.31707      6.15725        -0.155748      0.145498     -0.012457
O	      4.11384      6.29345      8.12997        -0.103456     -0.002459      0.132539
O	      6.36567      8.47235      8.26169         0.020341      0.053736      0.092463
O	      6.54257      6.33389     10.19911         0.178384      0.002771      0.056845
O	      8.44176      8.26727     10.29963        -0.026122     -0.062102      0.128325
