# total energy = -239.42156762 eV
 
CRYSTAL
PRIMVEC
-0.011080 6.284346 6.195725 
6.303983 0.002920 6.181586 
4.197839 4.175493 0.006927 
PRIMCOORD
36 1
Li	      6.22048      4.15807      2.08062         0.009159     -0.007134      0.021111
Li	      4.21134      2.17524      2.05417        -0.000389      0.026737      0.010522
Li	      8.33521      4.21703      8.24772         0.003485      0.005539      0.034504
Li	      2.07581      2.15365      4.07683        -0.027999      0.047008     -0.005971
Li	      8.32256      6.23343      6.31236        -0.047291     -0.011228     -0.002706
Li	      6.31332      4.27467      6.30870        -0.009589      0.068704     -0.048497
Li	      6.35081      4.20745     10.18907         0.009440      0.006953      0.003646
Li	      4.25931      4.11464      8.20766         0.004798     -0.002210     -0.034230
Li	      6.38969      6.17365      8.19457         0.019510     -0.057674      0.010501
Ti	      4.12173      0.06981      3.98511        -0.108572      0.084151     -0.182174
V	      2.11051      2.11449      0.09590         0.418381     -0.005262     -0.301344
Cr	      6.29577      8.35206     10.25774        -0.142552      0.117076     -0.192967
Cr	      4.18819      4.15912      4.10759         0.067005     -0.046314      0.012426
Cr	      8.37410      6.25674     10.25269         0.040191     -0.017184      0.018547
Cr	      6.28852      8.31854      6.29404         0.174484      0.039040      0.063728
Cr	      4.23527      6.27362      6.27006         0.124657     -0.161412      0.021074
Fe	      6.29458      2.21142      8.16688        -0.268969     -0.088680      0.386122
Ni	      4.16814      4.16139      0.08311         0.066954     -0.227469      0.016357
O	      2.04441      2.09995      2.00026        -0.146586     -0.025090      0.157479
O	      4.19393      4.26533      2.12662         0.012463      0.031356      0.111906
O	      4.26021      2.03575      4.12115         0.040167     -0.093041      0.008525
O	      6.35936      4.11421      4.12881         0.095268     -0.017291     -0.014228
O	      6.34473      2.02994      6.13450        -0.072428      0.145611     -0.026031
O	      8.45654      4.07702      6.01487        -0.172635      0.218963     -0.145654
O	      2.19108      4.26410      4.23670        -0.043474      0.006767     -0.000405
O	      4.10369      6.17217      4.20224         0.013886      0.071649     -0.062223
O	      4.11397      4.26208      6.13026        -0.022887      0.006235      0.019396
O	      6.19228      6.36154      6.18562        -0.006548     -0.009000      0.030358
O	      6.31285      4.09542      8.25795         0.005067      0.047353     -0.020633
O	      8.45941      6.25538      8.32061         0.102502      0.008071     -0.056326
O	      2.13128      6.29436      6.14747         0.108687     -0.010674     -0.049187
O	      4.24339      8.31539      6.20686        -0.118491     -0.066309      0.012852
O	      4.19527      6.27663      8.32768        -0.001994      0.003160      0.245521
O	      6.29605      8.40361      8.27736        -0.007377     -0.009468      0.030052
O	      6.28347      6.34549     10.33913         0.017084     -0.063162     -0.124047
O	      8.32335      8.38274     10.36005        -0.135412     -0.015771      0.051996
