# total energy = -243.48780794 eV
 
CRYSTAL
PRIMVEC
0.001828 6.260953 6.393271 
6.244035 0.012255 6.382696 
4.144923 4.149163 0.025913 
PRIMCOORD
36 1
Li	      8.27458      2.15361      6.44538        -0.005298      0.000770      0.068742
Li	      6.16955      4.26957      2.24239        -0.046508     -0.013498     -0.019747
Li	      4.07189      2.11157      2.23540         0.000216      0.093171     -0.004469
Li	      4.15932      6.31008     10.59136         0.010707     -0.024918     -0.017267
Li	      0.07388      2.03700      2.12083         0.012639      0.051137     -0.013863
Li	      4.19736      4.11246      4.13981         0.019479      0.004805     -0.036160
Li	      4.22591      2.01345      6.28759        -0.000457      0.023944      0.018447
Li	      6.23525      4.23347     10.63030        -0.037706     -0.008960     -0.012527
Li	      6.18922      6.20179      8.65084        -0.007104      0.002984     -0.015220
Ti	      6.21103      8.30914      6.49598         0.048936     -0.191009      0.087593
V	      8.37423      8.28144      8.60327        -0.000251      0.037398     -0.102225
Cr	     10.36028      4.19501      6.42967        -0.143139      0.006574      0.052176
Cr	      6.16255      2.09433      4.23616        -0.033390      0.049439     -0.057952
Cr	      2.09113      4.16961      2.16629        -0.026778      0.045982     -0.087409
Cr	      2.10885      2.06981      4.21271        -0.024290     -0.103568      0.075850
Cr	      4.12884      6.27178      6.42230         0.093784     -0.066568     -0.002930
Fe	      6.28243      4.12535      6.37236        -0.032037      0.009517      0.025040
Fe	      8.38325      6.27273     10.59533         0.006586     -0.042626      0.029426
O	      2.06219      2.18432      2.25672         0.011179      0.027752     -0.024263
O	      4.06023      4.19680      2.03886         0.013751      0.045704      0.009700
O	      4.14893      2.06258      4.24042         0.010632     -0.024125     -0.030605
O	      6.20644      4.16624      4.32570        -0.000936     -0.017595     -0.127724
O	      6.25970      2.01222      6.21951         0.050334     -0.078184     -0.010526
O	      8.38253      4.14600      6.56296         0.216759     -0.001810      0.021633
O	      2.10133      4.10424      4.31894        -0.009610     -0.041840      0.067227
O	      4.18193      6.27261      4.42427         0.078783      0.003903      0.042544
O	      4.06377      4.23905      6.48506        -0.179251      0.041382      0.008743
O	      6.15792      6.34186      6.32235        -0.041795      0.215199     -0.014640
O	      6.22434      4.18134      8.46348        -0.005137      0.016870      0.099514
O	      8.31894      6.35894      8.48691         0.021730      0.010904     -0.070918
O	      2.08968      6.14349      6.39987        -0.053256     -0.063342      0.147416
O	      4.27437      8.32036      6.45610         0.069846      0.029299      0.022265
O	      4.15434      6.03672      8.41209         0.013411     -0.020111     -0.005092
O	      6.30328      8.27563      8.46917        -0.021639     -0.006325     -0.103205
O	      6.29182      6.34338     10.74072        -0.033104     -0.038276      0.020772
O	      8.22077      8.40050     10.51596         0.022916      0.026021     -0.040344
