# total energy = -234.95500523 eV
 
CRYSTAL
PRIMVEC
0.011453 6.238776 6.206770 
6.312338 -0.005887 6.224143 
4.202379 4.164898 0.001921 
PRIMCOORD
36 1
Li	     10.38941     10.30146     12.37894        -0.008592      0.004510     -0.033136
Li	      8.54631      8.46314     12.34869         0.057036      0.028378     -0.038844
Li	      6.36111      4.14633      2.19734         0.058358     -0.001923      0.008696
Li	      8.28768      4.18965      4.26912        -0.034301      0.005775     -0.000950
Li	      6.34014      6.08589      4.27197        -0.006679     -0.083704     -0.034586
Li	      4.31000      4.14482      4.23701        -0.021672      0.030719      0.012159
Li	      6.33387      4.23397      6.05908        -0.001050     -0.008084      0.074449
Li	      4.20586      8.33271      4.27883         0.013065     -0.036530     -0.015112
Li	      4.31712      6.25314      6.17529        -0.018004     -0.020335     -0.019942
Ti	      0.14107      1.98211      2.00346         0.168857     -0.140389      0.143009
V	      2.11404      6.24331      4.34204         0.194769     -0.004874     -0.096334
Cr	      4.19457      8.30385      8.26793        -0.047296      0.034876      0.008524
Cr	      6.29289      2.14108      4.23570        -0.029098      0.097661     -0.005745
Cr	      8.39009      4.17470      8.25498         0.033396     -0.060105      0.076597
Cr	      4.21534      4.20707      8.24150        -0.014710      0.041450     -0.008803
Cr	      6.30055      6.20946      8.26583        -0.060292     -0.013804     -0.051269
Ni	      4.16088      2.06263      6.11611        -0.000115      0.015627     -0.031910
Ni	      2.07386      4.10445      6.12122        -0.003703      0.079601      0.008520
O	      2.06750      2.14581      2.07478        -0.134759     -0.034374     -0.043626
O	      4.11959      4.20004      2.03997        -0.005446      0.110640     -0.016691
O	      4.28944      2.07464      4.06888         0.012680     -0.016767     -0.096483
O	      6.31088      4.07297      4.12263        -0.022620     -0.058074      0.044356
O	      6.27202      2.07499      6.31107         0.102541     -0.015100      0.091587
O	      8.40360      4.20544      6.32110        -0.014071     -0.131279     -0.013236
O	      2.06587      4.29528      4.05498        -0.018529     -0.006270     -0.133655
O	      4.07236      6.26390      3.91513         0.003570     -0.027820     -0.149765
O	      4.10960      4.12180      6.30581         0.150142      0.136895      0.044240
O	      6.32997      6.25609      6.28187        -0.107544     -0.099381      0.083949
O	      6.28754      4.14281      8.27833         0.004497     -0.004742     -0.037282
O	      8.41694      6.25641      8.32064        -0.042474      0.006570      0.014299
O	      2.14629      6.23311      6.08040         0.011078      0.085205      0.166189
O	      4.25290      8.31378      6.32629        -0.118523      0.028712     -0.030438
O	      4.33159      6.22553      8.29542        -0.029732     -0.001008      0.011136
O	      6.31046      8.24489      8.35206         0.032036     -0.000003      0.043738
O	      6.45828      6.30380     10.29243        -0.048632      0.032451      0.016457
O	      8.35263      8.23155     10.28514        -0.054184      0.025494      0.009904
