# total energy = -243.40624408 eV
 
CRYSTAL
PRIMVEC
0.043280 6.387098 6.181111 
6.306330 0.046739 6.176587 
4.228249 4.278377 0.008005 
PRIMCOORD
36 1
Li	      4.28107      4.26871      0.20082         0.021305      0.011176     -0.112789
Li	      6.09657      4.19493      2.06927         0.040761     -0.005621      0.027313
Li	      4.31783      2.42818      2.00892         0.049447     -0.032848     -0.030616
Li	      6.31595      8.60077     10.19236        -0.011951      0.021661      0.022650
Li	      4.28019      6.17162      2.05287        -0.019455      0.015113      0.040752
Li	      2.36147      4.19177      2.10291         0.047006      0.002690      0.012042
Li	      4.19184      4.28578      3.89809        -0.047242      0.044900      0.030556
Li	      6.30006      8.60736      6.29534        -0.027422      0.020245     -0.031341
Li	      6.38752      6.56872      8.23509         0.016975      0.033718      0.045075
Ti	      4.28922      6.47986     10.16978         0.195693      0.080267     -0.185334
V	      6.35885      4.31215     10.22058         0.195889      0.136475      0.177065
Cr	      2.08475      2.10120      0.11113        -0.049030     -0.012286      0.003181
Cr	      2.12159      2.17482      4.02481         0.166887     -0.231710      0.004051
Cr	      8.49436      6.41492      6.24855         0.001762     -0.029452      0.009904
Cr	      6.34566      4.28557      6.23362         0.003637     -0.022946     -0.006387
Cr	      4.23377      6.42398      6.22290        -0.035112     -0.022118     -0.075793
Cr	      8.36157      8.53402      8.28624        -0.086357     -0.197813     -0.049693
Co	      2.13184      6.26494      4.07868        -0.058172      0.222567      0.167884
O	      2.11666      2.16186      2.04618         0.006796     -0.003276      0.029499
O	      4.23203      4.29159      2.05058         0.013456     -0.022578     -0.009960
O	      4.17324      2.03353      4.19921         0.004682     -0.122921      0.058206
O	      6.48362      4.40255      4.20273         0.001654      0.073915     -0.022321
O	      6.29458      2.29830      6.14417         0.024082     -0.011822      0.016864
O	      8.36036      4.33959      6.11293         0.000389     -0.027017      0.045152
O	      2.08468      4.19563      4.15051        -0.276185     -0.016260     -0.050270
O	      4.30678      6.47900      4.21878         0.084235     -0.036552      0.015640
O	      4.31855      4.26531      6.25993         0.006393     -0.003876      0.015479
O	      6.35822      6.32755      6.10726         0.038535      0.021155      0.030092
O	      6.21183      4.31328      8.25266        -0.212321      0.025128      0.009040
O	      8.41538      6.53970      8.21361        -0.035568      0.016236      0.281940
O	      2.25149      6.50770      6.10757        -0.049281     -0.088377     -0.485759
O	      4.13878      8.39947      6.12510        -0.071279     -0.006747     -0.087661
O	      4.24931      6.32843      8.27526        -0.006963     -0.008303      0.164560
O	      6.44007      8.54583      8.24515        -0.033754      0.038509     -0.008558
O	      6.24683      6.32709     10.34719        -0.082421      0.158235     -0.018253
O	      8.45137      8.69111     10.34957         0.182933     -0.019467     -0.032211
