# total energy = -244.94619770 eV
 
CRYSTAL
PRIMVEC
0.011434 6.271492 6.248549 
6.286668 0.020739 6.239265 
4.206356 4.190049 -0.001438 
PRIMCOORD
36 1
Li	     10.44279      4.29664      6.28633        -0.019875      0.081795     -0.054021
Li	      2.06153      2.12902      0.13159        -0.019887      0.016668     -0.092580
Li	      4.11797      2.09599      2.00910        -0.004652      0.037758     -0.089218
Li	      6.34949      8.33831     10.37880         0.022557     -0.005956     -0.000143
Li	      6.37363      2.18677      8.23726        -0.003824      0.003794     -0.008060
Li	      8.31735      4.09017      8.26802        -0.019479     -0.042284     -0.002578
Li	      2.09533      2.11740      4.00010         0.017022     -0.025502     -0.023379
Li	      8.41794      8.34242      8.37190         0.029167      0.006711      0.037235
Li	      6.36257      6.27892      8.33016        -0.011999     -0.040146      0.083988
Ti	      4.24078      4.09553      4.04705         0.164525     -0.151549     -0.272445
V	      4.24120      6.30229     10.39266        -0.102292     -0.148887     -0.247970
Cr	      8.35572      6.34868     10.32193        -0.231203      0.011717      0.052104
Cr	      2.08071      0.06655      2.06715         0.107316     -0.031366     -0.084566
Cr	      8.45218      6.27901      6.36619        -0.028126     -0.041091      0.056648
Cr	      6.29794      4.18155     10.32172         0.054228      0.147393      0.036784
Cr	      6.28843      8.36151      6.30809        -0.021595     -0.010623      0.052757
Cr	      4.23681      6.28502      6.30841         0.027950      0.013863      0.121510
Fe	      6.35560      4.13297      6.35027        -0.063076      0.161450      0.000285
O	      2.10607      2.01505      2.06746        -0.005077      0.001644     -0.018013
O	      4.24820      4.18167      2.22472        -0.061193     -0.002384      0.246382
O	      4.18011      2.19638      4.28137         0.009089      0.088312     -0.053269
O	      6.25631      4.21620      4.09844        -0.415459      0.011505     -0.089731
O	      6.17995      2.15187      6.23388         0.029653     -0.192196      0.022483
O	      8.43437      4.30979      6.11646         0.015969      0.082243      0.103931
O	      2.16138      4.28182      4.21106         0.016923     -0.047398      0.014797
O	      4.10446      6.23717      4.27676         0.061630     -0.082520     -0.039401
O	      4.13911      4.20379      6.18596        -0.085863      0.034212     -0.016846
O	      6.28197      6.31202      6.25422        -0.008450      0.083283      0.026195
O	      6.30415      4.19233      8.40568        -0.001071     -0.045057      0.128939
O	      8.37832      6.29980      8.35799         0.034657      0.015787     -0.033528
O	      2.19360      6.20670      6.23236         0.023866     -0.018948     -0.037845
O	      4.31695      8.25285      6.14416         0.011588     -0.015595      0.040931
O	      4.11761      6.30167      8.33895        -0.159026      0.048043      0.051388
O	      6.27150      8.49803      8.23762         0.015196     -0.005337      0.054314
O	      6.27756      6.20210     10.38790         0.535109     -0.161307      0.060031
O	      8.49933      8.36799     10.43372         0.085705      0.221969     -0.027109
