# total energy = -242.01145892 eV
 
CRYSTAL
PRIMVEC
0.002517 6.257341 6.239221 
6.291364 0.007354 6.234393 
4.199933 4.173954 -0.000731 
PRIMCOORD
36 1
Li	      4.25280      4.10842      0.15272         0.024906     -0.024917     -0.003990
Li	      6.23253      4.15242      2.12957         0.027422     -0.014043      0.018954
Li	      4.21676      2.18432      2.10722         0.026056     -0.001537     -0.009247
Li	      2.24049      4.08180      2.13078         0.032759     -0.057016      0.023944
Li	      2.12020      2.06388      4.03181        -0.010640     -0.015468     -0.024106
Li	      4.23998      4.14096      4.01308         0.047425      0.001047      0.039670
Li	      4.16404      6.29323      6.38714        -0.040304      0.023251      0.121771
Li	      4.12553      4.27848      8.28020        -0.044856      0.088505     -0.002646
Li	      6.18636      6.33988      8.32640        -0.096636      0.041796     -0.003916
Ti	      8.33490      6.28123      6.29956        -0.193394      0.082242     -0.181010
V	      4.19213      6.29645     10.25490        -0.215455     -0.154730      0.227517
Cr	      2.16372      8.30570      6.31451         0.055164      0.001147      0.052681
Cr	      4.25225      6.17773      2.09860         0.138584     -0.004857     -0.001562
Cr	      6.26606      4.21372      6.26817        -0.104231      0.070374      0.068436
Cr	      6.30613      4.18681     10.33457         0.108336     -0.169123     -0.020714
Cr	      8.37560      6.24928     10.33798         0.147027      0.035953      0.045702
Cr	      6.25305      8.40107      6.32108        -0.013965      0.012664      0.125256
Ni	      6.27860      8.38184     10.26471         0.021839     -0.152299     -0.034083
O	      2.04916      2.07316      2.00018        -0.102744      0.010261     -0.041276
O	      4.20286      4.24417      2.08441        -0.016224     -0.004922     -0.019356
O	      4.25744      2.01553      4.32055        -0.067548      0.459605      0.305995
O	      6.35390      4.14843      4.28764         0.041076      0.140431      0.026955
O	      6.31882      2.17818      6.25663        -0.040305     -0.023677      0.070684
O	      8.30742      4.17344      6.17662        -0.028613      0.058522      0.169035
O	      1.99830      4.25799      4.26301        -0.022290     -0.018795     -0.036218
O	      4.10108      6.34397      4.07374        -0.047719      0.023980     -0.023518
O	      4.17977      4.04291      6.23306         0.056924     -0.202450      0.010235
O	      6.41926      6.27637      6.25021         0.233378     -0.036636      0.067438
O	      6.28279      4.08666      8.29861        -0.004515     -0.001422     -0.059842
O	      8.47003      6.22094      8.24328         0.029557     -0.020887     -0.067219
O	      2.11713      6.26590      6.10753        -0.012510      0.018640     -0.079703
O	      4.19340      8.33798      6.12887        -0.000313      0.010620     -0.049688
O	      4.19614      6.25957      8.41346         0.027756      0.015119     -0.514618
O	      6.29296      8.35711      8.25299         0.021444     -0.002606     -0.171346
O	      6.33462      6.23260     10.36999        -0.159486     -0.043093     -0.068737
O	      8.42107      8.32320     10.46335         0.182097     -0.145677      0.038521
