# total energy = -248.50056107 eV
 
CRYSTAL
PRIMVEC
-0.018654 6.247665 6.228665 
6.452165 -0.003917 6.213576 
4.312663 4.166030 -0.013628 
PRIMCOORD
36 1
Li	      4.48007      8.30956      8.27779        -0.031824     -0.042608      0.001638
Li	      6.52736      8.24272     10.16833         0.014111      0.045311      0.035308
Li	      8.52821      4.28855      8.35318        -0.036884     -0.006212      0.035225
Li	      4.27539      4.15350      4.11087         0.015359      0.010093     -0.008937
Li	      6.42006      4.21887     10.28000        -0.010513     -0.041838      0.011763
Li	      8.45469      6.25478     10.25155        -0.039287     -0.028718      0.036181
Li	      6.45289      8.33575      6.31059         0.021419     -0.008033     -0.069205
Li	      8.52446      8.28387      8.31707         0.006515      0.039056     -0.048244
Li	      6.50764      6.35035      8.38284         0.025775      0.003170     -0.070135
Ti	      2.17714      2.26311      4.08434        -0.027029      0.346017     -0.024382
V	      4.34823      6.18134     10.29007        -0.075081      0.146954     -0.077332
Cr	      4.29770     10.35549      6.21123        -0.028568     -0.030839      0.010256
Cr	      2.13925      8.32053      6.21386         0.036678     -0.025683      0.097310
Cr	      6.42495     10.31121      8.31327         0.016601      0.004846      0.103856
Cr	      4.25224      6.26454      2.14504        -0.017853     -0.002422      0.127532
Cr	      8.58940      6.29421      6.24214         0.067419      0.039851      0.022353
Cr	      6.44463      4.15394      6.23577        -0.010192     -0.009390     -0.038634
Cr	      4.29660      6.23224      6.22705        -0.034438      0.020789      0.001242
O	      2.03572      2.02177      2.12215        -0.001990      0.032100      0.000290
O	      4.40316      4.22640      2.01097        -0.059909     -0.054410     -0.009337
O	      4.15162      2.00349      4.20422        -0.026677      0.123166      0.031851
O	      6.59171      4.21414      4.13753        -0.085514     -0.015697      0.020371
O	      6.44378      2.07059      6.31065        -0.003425     -0.010540     -0.036013
O	      8.60946      4.15824      6.19036         0.006942      0.030037      0.082476
O	      2.18300      4.06414      4.17483         0.036357     -0.365097     -0.020052
O	      4.50264      6.23582      4.15213         0.120187      0.016062     -0.083619
O	      4.47080      4.11809      6.15552         0.088474     -0.091485      0.021739
O	      6.57504      6.16171      6.13371         0.135453      0.055505      0.008668
O	      6.47982      4.07098      8.19322         0.014177      0.101606     -0.021457
O	      8.72156      6.24316      8.22599        -0.020885      0.001893     -0.046891
O	      1.99796      6.32292      6.28108        -0.157043     -0.028428     -0.047927
O	      4.11034      8.35805      6.24077        -0.046414      0.052669      0.014441
O	      4.12673      6.23389      8.25553        -0.005373      0.016390     -0.054419
O	      6.43641      8.38695      8.24928        -0.046421     -0.109260      0.011932
O	      6.30819      6.25775     10.44390         0.200374      0.018680      0.007859
O	      8.55529      8.40537     10.48375        -0.040522     -0.233539     -0.025710
