# total energy = -208.33075740 eV
 
CRYSTAL
PRIMVEC
-0.061039 6.325549 6.265489 
6.132861 0.003497 6.200710 
4.111960 4.197123 -0.020669 
PRIMCOORD
36 1
Li	      8.15016      4.25022      4.17963        -0.056366      0.051302     -0.005255
Li	      6.07598      2.19160      8.30669         0.016505     -0.067918     -0.009363
Li	      6.15264      6.33608      4.18350         0.012093     -0.076672     -0.028340
Li	      8.09853      6.35312      6.25158         0.027191      0.010292      0.009921
Li	      6.12441      4.32188      6.28358         0.031167     -0.019994     -0.004145
Li	      2.06162      6.24414      4.09777         0.006907      0.033251     -0.002185
Li	      6.15099      8.29100      6.18065         0.009854     -0.025044      0.056235
Li	      4.14586      6.25816      6.16473         0.007793      0.006400      0.029158
Li	      8.21554      8.26759      8.25079        -0.053539     -0.066382     -0.046550
Ti	     10.17439      4.20348      6.11998        -0.147295      0.139535      0.061546
V	      2.14007      6.37336      8.29140        -0.243848      0.039769      0.223540
V	      6.13225      8.46798     10.38718        -0.176209      0.218887     -0.020348
Co	      4.04495      4.28918      4.31788         0.110223     -0.071948      0.423227
Cu	      4.14730      8.25557      4.12971        -0.159412     -0.195013      0.110768
Ni	      8.17298      2.10331      6.18195        -0.035492      0.003562      0.058338
Ni	      4.06703      8.44803      8.28976        -0.062027     -0.020847      0.006664
Ni	      8.12262      4.25145      8.30784         0.183629     -0.240315     -0.099716
Ni	      6.09581      6.24410      8.28604        -0.159228      0.168995      0.073138
O	      2.09664      2.01530      2.02224        -0.127691      0.090933      0.073478
O	      4.20253      4.18870      1.97990        -0.074442      0.147095     -0.042415
O	      4.25295      2.22837      4.07045        -0.009484      0.007500      0.114311
O	      6.11441      4.16691      3.99258        -0.086645     -0.070526      0.123211
O	      6.11991      2.00211      6.12312        -0.153681     -0.158839     -0.055774
O	      8.27481      4.15574      6.25123         0.248221      0.140042     -0.126518
O	      2.05471      4.17366      4.12972         0.100380     -0.016811      0.147617
O	      4.07213      6.21607      4.15347         0.005344      0.129950      0.003875
O	      4.08152      4.22106      6.08398        -0.009129      0.041497     -0.394073
O	      6.13309      6.29704      6.39745        -0.069162      0.009871     -0.245970
O	      6.08982      4.20491      8.44033        -0.095435     -0.048025      0.003951
O	      8.01261      6.25838      8.26125         0.160136      0.212040      0.088307
O	      1.88403      6.35153      6.37178        -0.122031     -0.112252     -0.258284
O	      4.03471      8.52519      6.13745         0.180860      0.041112     -0.083682
O	      3.93780      6.35844      8.31761         0.426100     -0.050912     -0.001015
O	      6.09841      8.55014      8.37865         0.155676     -0.145115     -0.008490
O	      6.01866      6.45255     10.43705         0.049845     -0.071290      0.012471
O	      7.96900      8.45097     10.40965         0.109190     -0.034127     -0.187631
