# total energy = -207.95564731 eV
 
CRYSTAL
PRIMVEC
0.021872 6.226992 6.361816 
6.033180 -0.017270 6.400884 
4.015745 4.170346 -0.004577 
PRIMCOORD
36 1
Li	      6.04960      6.21710     12.65201         0.073221      0.005446     -0.137818
Li	      4.02110      1.96892      2.32449         0.027573     -0.083691      0.025724
Li	      4.01958      0.16751      4.21757         0.138563      0.002840      0.046742
Li	      5.96308      2.11435      4.23864         0.041420     -0.140419      0.017674
Li	      6.11174      6.10924      4.32963        -0.046947      0.128444      0.082500
Li	      4.06260      2.08626      6.19872         0.032021     -0.034688      0.006185
Li	      5.99708      4.25500      6.25998         0.036928      0.039658      0.048152
Li	      4.04000      6.18180      6.48462        -0.132404      0.008272      0.045703
Li	      5.96039      6.26445      8.57247        -0.024148      0.030869      0.074101
Ti	      6.03759      8.14932      6.48745         0.039769      0.040389     -0.239028
V	      8.02411      8.28269     12.70415         0.302334     -0.472353     -0.671356
V	      8.08915      4.15866      8.40611        -0.006989      0.441740      0.275070
Co	      2.00663      6.22785      4.25061         0.262765     -0.007241     -0.002938
Cu	      6.02916      4.11086      2.29087        -0.134396      0.004323     -0.049806
Cu	      0.02779      2.08374      2.11121        -0.109776     -0.041194      0.083049
Ni	      4.05332      4.11610      4.31870        -0.294695      0.214057     -0.002059
Ni	      0.02799      4.16214      4.24976         0.040951      0.073316      0.038544
Ni	      4.06981      4.19348      8.50003         0.139471     -0.306711      0.215166
O	      3.92636      6.15836      8.59178         0.068828      0.264652     -0.036447
O	      1.98120      2.17149      1.96581         0.091865     -0.032385      0.039474
O	      3.90372      4.10841      2.14727         0.434545      0.080600      0.031843
O	      4.02938      2.22195      4.27091        -0.028107     -0.277153     -0.065554
O	      5.92082      4.17141      4.26468         0.395216     -0.002043     -0.089145
O	      6.20567      2.05932      6.41658        -0.355302      0.092732      0.158298
O	      8.05933      4.08099      6.50325        -0.016025     -0.068565     -0.077123
O	      2.06984      4.27892      4.24934         0.033798     -0.235317      0.009558
O	      3.91640      6.16431      4.18097         0.166713      0.058768     -0.335949
O	      3.94229      4.15382      6.41733        -0.096635     -0.004787      0.023534
O	      6.01434      6.35917      6.36700        -0.066765      0.098405      0.063983
O	      6.21913      4.20980      8.59359        -0.371250     -0.118141     -0.107570
O	      8.12699      6.19116      8.68545         0.034150      0.075293     -0.342796
O	      2.03177      6.27245      6.14014        -0.025859      0.002876      0.557547
O	      3.98112      8.31267      6.28642         0.064335     -0.007714      0.235910
O	      6.02990      8.30091      8.33384        -0.209819     -0.122653      0.108729
O	      6.20745      6.16666     10.61033        -0.375067      0.075960     -0.041656
O	      8.07241      8.12742     10.66955        -0.130283      0.216417      0.011759
