# total energy = -208.74461458 eV
 
CRYSTAL
PRIMVEC
0.036017 5.961877 6.538994 
6.315230 -0.004365 6.582682 
4.218526 4.011688 -0.013173 
PRIMCOORD
36 1
Li	      2.23022      2.03166      0.17143         0.009302     -0.032600      0.003015
Li	      2.07981      0.10104      2.15846         0.079007     -0.142464      0.007390
Li	      6.33725      7.92852     10.82038         0.011815     -0.090457     -0.071723
Li	      4.35428      6.02933      2.34321        -0.024799      0.034792      0.081260
Li	      2.00973      2.04267      4.24413        -0.065799     -0.040528      0.053663
Li	      4.10127      4.04302      4.41931         0.009269      0.032959      0.013653
Li	      2.26191      5.96986      4.31044        -0.007375      0.089784      0.007343
Li	      4.13813      5.98476      6.29175        -0.028518      0.086260     -0.095404
Li	      8.41600      7.91567      8.70830        -0.038177      0.053905      0.016962
Ti	      0.25352      6.01614      6.57975         0.315976     -0.026388     -0.123632
V	      8.29928      3.97083      4.35853         0.163638     -0.231619     -0.080960
V	      6.24458      3.98534      6.57980        -0.025759     -0.016973     -0.052092
Co	      6.33153      5.94725      8.74390        -0.286142      0.269980     -0.097372
Cu	      4.20877      2.04161      2.18891         0.220634     -0.095150      0.107658
Cu	      2.14172      3.98330      2.30895         0.010242      0.010781      0.068497
Cu	      8.43884      5.98992      6.55659         0.049190      0.136572     -0.010958
Cu	      4.28845      7.93958      4.38473        -0.031792      0.121371      0.091952
Ni	      6.35349      7.92388      6.50630         0.152388     -0.022747      0.143819
O	      6.26932      7.82881      8.66029         0.060330      0.168510      0.046223
O	      2.26419      2.07843      2.22031        -0.098466      0.107095      0.039743
O	      4.21756      4.04485      1.96061         0.048762      0.228468     -0.003725
O	      4.28559      1.82670      4.48262        -0.008110      0.236175     -0.075635
O	      6.49690      3.94384      4.46138        -0.153298      0.028452      0.015876
O	      6.45005      2.06634      6.57353         0.109616     -0.149384     -0.016016
O	      8.37913      4.04633      6.35278         0.064563     -0.067341      0.011136
O	      2.04372      3.98866      4.47507        -0.090159      0.039041     -0.051979
O	      4.21024      6.09197      4.31099         0.008929     -0.558886     -0.130473
O	      4.28314      3.90175      6.53527        -0.120769      0.076055     -0.039838
O	      6.18796      5.82058      6.54446        -0.051968     -0.124440      0.029065
O	      6.28636      4.04113      8.54552         0.127401     -0.268554     -0.132635
O	      8.21327      5.90441      8.65203         0.117438     -0.223325     -0.081186
O	      2.08449      5.98164      6.57816        -0.404441      0.105398      0.051701
O	      4.28146      8.08673      6.59523        -0.122367      0.027343      0.076302
O	      4.34818      6.01336      9.02825        -0.036136     -0.137276      0.003061
O	      6.24977      5.87797     11.10888         0.020612      0.429214      0.197057
O	      8.56193      8.12642     10.88600         0.014965     -0.054024     -0.001746
