# total energy = -208.18680488 eV
 
CRYSTAL
PRIMVEC
0.085012 6.151873 6.633385 
6.113812 0.051605 6.664029 
4.064819 4.112371 0.045234 
PRIMCOORD
36 1
Li	      0.17674      6.15205      6.65012         0.143248     -0.165652     -0.012621
Li	      1.92960      1.93749      0.15806         0.128574     -0.202303      0.035723
Li	      2.03948      6.22261      8.61398        -0.043649      0.019546     -0.123672
Li	      4.09408      6.09387      2.33529         0.102105     -0.021243      0.208403
Li	      6.18671      4.12173      6.61675        -0.136229      0.011046     -0.101964
Li	      2.04665      6.15069      4.73136         0.031145     -0.049883      0.169408
Li	      2.07976      4.25621      6.69069        -0.073853      0.135552      0.000848
Li	      3.97290      6.18890      6.57414        -0.100888      0.067293     -0.104103
Li	      6.24537      6.23899      8.95932        -0.111349      0.027621      0.214561
Ti	      4.10722      8.18953      4.63207         0.044213     -0.126181      0.415035
V	      8.16472      6.08664      6.82404        -0.001050     -0.991189      0.368633
V	      4.18476      4.36350      8.75359        -0.171997      0.520585      1.032815
Co	      8.14346      4.13420      8.88914         0.173382     -0.379212      0.531547
Cu	      4.15828      8.24361      8.70933         0.141319     -0.274885     -0.150488
Cu	      8.13099      4.15030      4.54077        -0.187410      0.117787     -0.012876
Cu	      6.22754      8.23015     11.10477         0.054347      0.005553     -0.052078
Cu	      2.09075      2.08428      4.40892        -0.247816      0.051438     -0.169250
Cu	      4.14843      4.17090      4.37940         0.022600      0.098744     -0.029837
O	      2.07508      6.16599      6.65537        -0.064421      0.028755      0.065922
O	      6.34396      8.25960      9.06802         0.167072     -0.066972     -0.260579
O	      2.10064      2.16161      2.29447        -0.004594      0.212235     -0.248106
O	      3.92503      4.00480      2.25106        -0.191991      0.172270     -0.130544
O	      4.12625      2.14243      4.60084         0.039440      0.041480      0.693357
O	      6.20046      4.27046      4.52098         0.000436     -0.350500      0.115229
O	      5.95784      2.11362      6.45079        -0.840232      0.032315      0.305469
O	      8.14304      4.18274      6.96567        -0.044985      1.104487     -0.116548
O	      2.00819      4.07316      4.20251        -0.168973      0.238176     -0.317905
O	      4.15347      6.14238      4.46807        -0.345289      0.513823     -0.049069
O	      4.14394      4.08594      7.00255         0.011848     -0.707224     -0.504208
O	      6.36351      6.24984      6.57302         0.978940      0.006557      0.166626
O	      6.03394      4.11222      8.97401         0.145270     -0.034221     -0.123698
O	      8.20535      6.11094      8.73565        -0.021818      0.227082     -0.932556
O	      4.14921      8.16898      6.43590        -0.030094      0.014103     -0.468092
O	      4.20511      6.12282      8.74371         0.035790     -0.041790     -0.135928
O	      6.06790      6.04193     11.05313         0.416356      0.038628     -0.039595
O	      8.24020      8.25265     10.88287         0.150555     -0.273822     -0.239856
