# total energy = -209.46558640 eV
 
CRYSTAL
PRIMVEC
0.039118 6.223579 6.280639 
6.147597 0.047475 6.273198 
4.116937 4.162350 0.013282 
PRIMCOORD
36 1
Li	      4.04131      4.10950      0.12151         0.046505      0.003120      0.007678
Li	      4.10778      6.26316     10.38768        -0.025553     -0.008112      0.023479
Li	      0.07199      2.11271      2.08065        -0.057130      0.005779      0.013952
Li	      4.12898      4.16328      4.09344         0.019882      0.034412      0.049660
Li	      6.19182      4.20913      6.48215        -0.061661      0.020432     -0.004866
Li	      6.09720      8.23900      6.39458         0.036229      0.022906      0.037086
Li	      4.20566      6.33303      6.38746         0.050818     -0.031709      0.024174
Li	      4.24506      4.30862      8.34022        -0.026871     -0.109536     -0.072614
Li	      6.02309      6.12294      8.37349         0.070500      0.011607     -0.048241
Ti	      6.08841      2.14557      4.13263        -0.033719      0.087296      0.026669
V	      8.16414      6.33888      6.44089        -0.019367      0.239549     -0.220597
V	      2.16164      6.17192      4.46966         0.115151      0.020919      0.102808
Co	      6.16076      4.16198      2.11646        -0.005515      0.026694     -0.371485
Ni	      8.20442      2.27309      6.30871        -0.121419     -0.090827      0.006865
Ni	      4.14410      8.29038      8.26343         0.062216     -0.006882      0.075394
Ni	      6.15047      4.25036     10.43832        -0.061862      0.002950      0.032899
Ni	      8.22784      4.20436      8.34761         0.060393      0.020616      0.028381
Ni	      6.18387      6.18793      4.19002        -0.144643     -0.076813      0.009390
O	      2.05576      1.98075      2.14245        -0.086717     -0.068356     -0.127133
O	      4.19044      4.10306      2.09550         0.183282      0.149617      0.045054
O	      4.16760      2.04966      4.25506         0.275314     -0.002373     -0.023619
O	      6.16927      4.10941      4.01912         0.012156     -0.138497      0.321130
O	      6.09546      2.14313      6.10226        -0.097510     -0.020914     -0.052537
O	      8.22527      4.33514      6.30156        -0.011213      0.058989     -0.199392
O	      2.08116      4.35081      4.17464         0.054968     -0.099832      0.064898
O	      3.96812      6.25501      4.22336        -0.031209     -0.040944      0.010233
O	      4.13439      3.93234      6.26373        -0.019848     -0.093123     -0.022350
O	      6.32689      6.25076      6.19050         0.006705      0.004891      0.184701
O	      6.24056      4.18932      8.46282        -0.177465     -0.003650     -0.090748
O	      8.27234      6.25989      8.20946        -0.017920      0.111672      0.107779
O	      2.08466      6.22957      6.22402         0.003220     -0.049222     -0.040867
O	      4.07256      8.33170      6.20720         0.182189      0.003260      0.031691
O	      4.01034      6.26761      8.34417        -0.080906     -0.106093      0.077301
O	      6.18883      8.43567      8.46161         0.120762     -0.007793      0.045909
O	      6.41596      6.36149     10.38570        -0.085199      0.111121     -0.010060
O	      8.18692      8.18773     10.50209        -0.134563      0.018845     -0.042623
