# total energy = -212.24900024 eV
 
CRYSTAL
PRIMVEC
0.106176 6.379372 6.242870 
6.139356 0.078297 6.274478 
4.114804 4.296775 0.029259 
PRIMCOORD
36 1
Li	     10.28067     10.67437     12.52038         0.059622     -0.073985     -0.003924
Li	      8.27159      2.37610      6.34024         0.053752     -0.040690     -0.018596
Li	      4.06919      2.26765      2.10129         0.071272      0.047089     -0.042936
Li	      2.06026      4.23128      2.10313         0.018420     -0.035309      0.042219
Li	      2.12652      2.30522      4.16551        -0.055268      0.014981     -0.045953
Li	      6.29095      4.31279      6.36823        -0.009767     -0.096846     -0.000594
Li	      6.29162      4.36838     10.35973        -0.017660     -0.120849      0.126278
Li	      2.16036      6.27476      4.07809         0.059321      0.041846      0.022239
Li	      6.27867      6.30523      8.35298        -0.060000     -0.025339      0.077810
Ti	      1.98428      0.19542      2.08179        -0.090167      0.173096     -0.224365
V	      6.29758      8.41079     10.47759        -0.054363      0.055457     -0.208979
V	      4.28882      6.45744      6.25550        -0.257270     -0.103387     -0.120433
Co	      4.13871      4.32028      4.21754        -0.100198      0.057454      0.110162
Co	      8.27201      8.56191      8.35986        -0.073097      0.097480     -0.148006
Cu	      8.17625      4.33742      4.26263         0.114184     -0.026496     -0.058758
Cu	      6.14751      2.27896      8.38994         0.160826     -0.194828      0.028017
Cu	      2.06329      4.30702      6.17563        -0.101309      0.011602      0.096782
Ni	      8.19989      6.41499      6.30308        -0.085430      0.059615     -0.110309
O	      2.03495      2.06144      2.15361         0.107529     -0.057389     -0.011082
O	      4.16033      4.39671      2.24935         0.091322     -0.023843     -0.072693
O	      4.24766      2.38585      4.17217        -0.119262      0.087536     -0.088280
O	      6.12643      4.19211      4.11636        -0.055814      0.041960      0.012826
O	      6.19643      2.21048      5.98230         0.096443      0.055180      0.230732
O	      8.23786      4.40525      6.17848        -0.031698     -0.071993      0.203251
O	      2.23227      4.28919      4.20396        -0.056709     -0.000112     -0.093181
O	      4.13895      6.24383      4.40644         0.076840      0.065301     -0.154697
O	      4.04583      4.33879      6.28345         0.186919     -0.031392      0.105578
O	      6.07653      6.33796      6.37487         0.292087     -0.246421     -0.015363
O	      6.07107      4.22253      8.38700        -0.088487      0.148044     -0.060508
O	      8.30770      6.63923      8.28799        -0.121950      0.072540      0.107539
O	      2.24486      6.48648      6.42914         0.091136      0.150629      0.300259
O	      4.25279      8.40899      6.24525        -0.209958      0.230401     -0.035966
O	      4.10088      6.27901      8.38231         0.024859     -0.021834      0.090282
O	      6.29378      8.68902      8.44591         0.061216     -0.017740     -0.054465
O	      6.16769      6.62205     10.37377        -0.003187     -0.159467     -0.021925
O	      8.12765      8.52165     10.27037         0.025845     -0.062290      0.037041
