# total energy = -207.00005950 eV
 
CRYSTAL
PRIMVEC
0.041002 6.213877 6.275290 
6.376880 0.015441 6.300683 
4.238678 4.146990 0.022447 
PRIMCOORD
36 1
Li	     10.55217     10.33793     12.47290         0.018773      0.016881      0.036711
Li	      8.44673      2.19705      6.19263        -0.070714      0.031223      0.045252
Li	      4.27778      8.35893      8.27952         0.046103      0.040592      0.001222
Li	      6.57707      8.21173     10.59809         0.046523      0.019046      0.027304
Li	      8.47761      4.15569      8.21481        -0.013699     -0.008439     -0.079860
Li	      6.34049      6.18200      4.21860        -0.014356     -0.075625     -0.010935
Li	      6.52825      4.15136      6.31143        -0.002546     -0.027160      0.008762
Li	      8.42096      6.36997     10.49380        -0.035406      0.072094      0.016268
Li	      8.52541      8.26528      8.59011        -0.041786      0.000412      0.045704
Ti	      6.28354      2.17582      8.28450        -0.055936      0.051220     -0.387495
V	      2.29443      6.27119      8.41706        -0.099297      0.007412      0.144244
V	      4.07845      4.05928      4.19767         0.198446     -0.070380     -0.176159
Cu	      6.34226      8.29748      6.37506         0.071784      0.104464     -0.260618
Cu	      6.48794      6.22543      8.44666         0.005880     -0.075145      0.031390
Ni	      8.60583     10.30865     10.58107        -0.139374      0.113055     -0.033263
Ni	      8.51364      6.17842      6.34018         0.020744      0.105777     -0.047823
Ni	     10.57289      8.31719     10.52487         0.141282     -0.101362      0.040635
Ni	      4.31143      6.24090      6.26949        -0.057676     -0.058353      0.032567
O	      2.01816      1.87522      2.06398        -0.045821      0.031116     -0.004486
O	      4.29806      4.20253      2.29591        -0.051743      0.017215      0.093389
O	      4.22943      2.25774      4.21142        -0.054845      0.069774     -0.079200
O	      6.28209      4.10968      4.01638         0.016428     -0.002066      0.009061
O	      6.35539      2.07702      6.42781         0.042238     -0.011527      0.379089
O	      8.49562      4.20581      6.26656         0.015626     -0.089636      0.074060
O	      2.29591      4.12248      4.23125        -0.153696      0.000689     -0.003393
O	      4.30274      6.05608      4.17670        -0.003264     -0.030995     -0.112626
O	      4.27441      4.18823      6.08464         0.062821     -0.010586     -0.010204
O	      6.39602      6.32151      6.48481        -0.019189     -0.059505      0.041430
O	      6.44745      4.03880      8.45902        -0.006402     -0.159781     -0.126993
O	      8.64673      6.22672      8.40344         0.243472      0.013712      0.117127
O	      2.17349      6.12566      6.49457        -0.044133      0.024982     -0.018990
O	      4.38478      8.24075      6.23264        -0.103515      0.094180      0.185684
O	      4.08044      6.27291      8.42341         0.071493     -0.018665     -0.030185
O	      6.35420      8.46107      8.32905         0.002527      0.045544      0.053381
O	      6.38973      6.20664     10.34870         0.090275      0.113934     -0.014336
O	      8.56586      8.32196     10.52156        -0.081015     -0.174099      0.013287
