# total energy = -136.42756465 eV
 
CRYSTAL
PRIMVEC
4.198251 4.198422 0.000068 
-4.167130 -0.031121 3.934662 
4.148500 -4.148658 3.947692 
PRIMCOORD
24 1
Li	      1.03046      1.05165      0.98061         0.010375     -0.000378      0.004987
Li	      1.08712      1.02843      4.93198        -0.015111      0.006522     -0.019450
Li	      3.11781     -1.00550      4.92692         0.004016     -0.007190      0.013623
Li	      3.14715      3.16869      0.98072         0.000512     -0.011204      0.004593
Li	     -1.02852     -1.08770      4.93209        -0.005479      0.016985     -0.020849
Li	      5.20447      1.08079      4.92668         0.005482     -0.004129      0.014709
Mn	      1.05064      3.14808      2.95380         0.010195     -0.011175     -0.004128
Mn	     -1.04235      1.04276      2.95564        -0.012935      0.013741     -0.041176
Mn	      3.16195      1.03636      2.96274        -0.020500      0.021100      0.013621
Ni	      1.05226     -1.05215      2.94433        -0.041683      0.041694     -0.010347
Ni	      5.20776     -1.00898      2.97326         0.031810     -0.032782      0.008978
Ni	      3.08621     -3.08577      2.97162         0.017487     -0.018007      0.008875
O	      1.12074      1.13013      2.94691         0.041850      0.081457      0.002005
O	      5.15368      1.07600      2.95291        -0.105347     -0.008418      0.000873
O	      3.22284     -1.01880      6.90835         0.092806     -0.066024     -0.002560
O	      3.06834      3.07714      2.94700        -0.080361     -0.041368      0.001136
O	      3.12271     -0.95583      2.95289         0.006928      0.108190      0.000825
O	      1.02009     -3.22267      6.90807         0.064349     -0.092317     -0.002260
O	      5.22108     -1.02250      4.99317         0.004049     -0.003749      0.117828
O	      1.05894      3.13993      4.85514        -0.003281      0.002762     -0.105223
O	      3.13761      1.06046      4.84446         0.000311      0.001417     -0.136316
O	      3.10524     -3.10477      5.02572         0.005468     -0.006346      0.101574
O	     -1.00537      1.00565      4.90108        -0.008588      0.007840      0.056199
O	      1.04833     -1.04816      4.92940        -0.002351      0.001380     -0.007518
