# total energy = -206.85166815 eV
 
CRYSTAL
PRIMVEC
0.054633 6.873566 6.173805 
6.083214 0.103462 6.129303 
4.095237 4.593670 0.026247 
PRIMCOORD
36 1
Li	      8.02866      2.65843      6.07485        -0.054903     -0.024601      0.174098
Li	      4.13705      2.51004      2.10754        -0.017385     -0.023813     -0.057022
Li	      8.11997     11.26444     10.40878        -0.017673      0.031398     -0.067331
Li	      6.11293      2.34907      4.19240        -0.043354     -0.089518     -0.034367
Li	      4.13005      6.59998      2.00735        -0.002610      0.019593      0.066180
Li	      2.08393      4.52517      2.01280        -0.066991     -0.002828      0.060591
Li	      4.14139      4.51085      4.02543        -0.005787     -0.055099     -0.014041
Li	     10.09422      9.20198     10.25082         0.069523     -0.024980      0.075847
Li	      8.30904      7.30576     10.25588         0.048098     -0.053520      0.045326
Ti	      2.10819      2.20335      3.94214         0.079988      0.339261     -0.512014
V	      2.05821      4.65962      6.01849        -0.233388      0.167232     -0.049441
V	      6.17268      6.92406      8.42432        -0.111766     -0.036103     -0.025859
Cu	     10.13608      4.79565      6.22308         0.005755     -0.228041     -0.161032
Cu	      2.09889      0.10989      2.05394         0.021306      0.054003      0.352336
Cu	      6.06916      4.54013      6.16131         0.052623      0.024728     -0.415598
Cu	      4.16700      6.94321      6.14596         0.170415      0.062415     -0.116086
Cu	      8.15026      9.21519      8.30214        -0.092613      0.073012     -0.016772
Ni	      8.18085      6.79763      6.15760        -0.181370      0.121484      0.003538
O	      4.16607      7.10781      8.02302         0.066198      0.023133      0.166255
O	      8.15116      9.26683     10.21235        -0.034973      0.031967     -0.123961
O	      2.01803      2.46931      2.15413         0.020984      0.134647      0.378509
O	      4.28468      4.61200      2.02315        -0.104005     -0.020146     -0.037414
O	      3.96700      2.41947      4.13843        -0.267273      0.001493     -0.189320
O	      6.12092      4.86759      4.11520         0.005413     -0.420367      0.102178
O	      6.05881      2.14863      6.16578         0.200895      0.036265     -0.006250
O	      7.98057      4.72029      6.17288         0.105216     -0.093799     -0.069278
O	      2.09453      4.48270      4.27123         0.106003     -0.060947     -0.068659
O	      4.20982      6.98623      4.27654         0.086045      0.004571     -0.253482
O	      4.01360      4.37497      6.26304         0.222860     -0.032962      0.308110
O	      6.04639      7.21467      6.15812         0.131348      0.058138     -0.027775
O	      5.96434      5.06022      8.10259        -0.213636     -0.059102      0.230787
O	      7.94924      6.76898      8.21732         0.021509      0.040767      0.126399
O	      2.33598      6.56438      6.23668        -0.149049     -0.120107     -0.168782
O	      4.38488      9.52850      6.19887        -0.040858      0.083910      0.006684
O	      6.19207      8.85151      8.10956         0.243371     -0.019761      0.140289
O	      6.07568      6.96085     10.14574        -0.019914      0.057677      0.177357
