# total energy = -207.12529142 eV
 
CRYSTAL
PRIMVEC
0.002896 6.414511 6.546931 
5.969148 0.030252 6.522050 
3.978928 4.260034 0.018102 
PRIMCOORD
36 1
Li	      3.92680     10.54839      6.59016         0.041606     -0.046808     -0.035011
Li	      4.00517      2.15572      2.20776        -0.023842      0.013597      0.080954
Li	      7.93035      4.24761      4.36948         0.025442      0.001806     -0.047083
Li	      5.93889      2.23051      8.67555        -0.048832      0.045480     -0.009387
Li	      6.06878      6.41128      4.49117        -0.004628      0.018983     -0.069641
Li	      7.94226      6.40191      6.63520         0.085879      0.082518      0.048274
Li	      7.92021      6.47492     10.75644        -0.006741     -0.004640     -0.037254
Li	      3.98596      6.44826      6.50429        -0.109313     -0.066137     -0.022330
Li	      8.01322      8.51901      8.82575        -0.011092     -0.031441      0.059198
Ti	      2.13261      6.49812      8.61754         0.108887      0.081743     -0.041410
V	      5.91080      8.42441     10.94856        -0.100372     -0.080219     -0.099893
V	      3.96133      4.46542      4.34047         0.176824      0.071416     -0.217083
Cu	      7.99193      8.60061     13.03075         0.043640     -0.030307     -0.005127
Cu	      7.93525      4.35570      8.69265         0.307664     -0.125070     -0.142172
Cu	      5.99241      4.40881      6.53143        -0.150123      0.018450      0.039952
Cu	      3.97719      8.50511      4.39643        -0.162600     -0.091903     -0.193594
Cu	      5.91655      8.42380      6.57232         0.063509     -0.063862     -0.067734
Cu	      5.93911      6.37968      8.57835         0.162670     -0.142500      0.058814
O	      3.97393      8.48715      6.33020        -0.007488     -0.017233      0.305187
O	      5.94379      6.68214     11.03026         0.000948      0.064360      0.075183
O	      7.89372      8.60583     11.04199         0.136293      0.063968      0.110877
O	      1.99938      1.98106      1.98452         0.035672     -0.312783     -0.099765
O	      3.99424      4.23427      2.37304         0.197767     -0.075789      0.098253
O	      4.12262      2.23828      4.36258        -0.189107      0.016197      0.058906
O	      5.86088      4.28853      4.18643         0.207019      0.036095     -0.118465
O	      6.02078      2.38285      6.28636        -0.077621      0.014512      0.036050
O	      7.89542      4.41031      6.76478         0.045769     -0.137440     -0.033671
O	      2.11476      4.19017      4.19520        -0.205351     -0.078851     -0.153058
O	      3.95952      6.19886      4.30928         0.025124      0.009149      0.037023
O	      3.98467      4.27018      6.19366         0.052143     -0.039403      0.295463
O	      5.94005      6.44680      6.53189         0.013670      0.032421     -0.078522
O	      5.99139      4.26971      8.97033        -0.317194     -0.089346      0.228743
O	      7.84462      6.36726      8.72800         0.004127      0.606610     -0.049586
O	      1.95228      6.10412      6.79226        -0.026476      0.099864      0.030762
O	      3.99657      6.44458      8.74612        -0.286651      0.046310     -0.064612
O	      6.05944      8.67981      9.09051        -0.007223      0.110248      0.021757
