# total energy = -207.21534894 eV
 
CRYSTAL
PRIMVEC
-0.003529 6.193388 6.251719 
6.300605 0.001125 6.246832 
4.169657 4.094887 0.031295 
PRIMCOORD
36 1
Li	      2.15682      6.19998      8.31121        -0.008277     -0.007030     -0.005098
Li	      4.19029      8.17597      8.34714         0.017049     -0.031698      0.015268
Li	      4.21051      6.15785     10.37353        -0.027128      0.047570      0.029996
Li	      6.24224      2.14259      8.30394        -0.017442      0.001890     -0.024378
Li	      4.19615      4.09659      4.17993        -0.001963      0.005312     -0.054333
Li	      4.19291      2.14775      6.30835        -0.015934     -0.020541     -0.027513
Li	      6.24391      4.08868      6.36190         0.011155     -0.015217     -0.012476
Li	      6.20552      4.19653     10.33000        -0.064783      0.040981      0.006490
Li	      2.18949      4.14309      6.28973        -0.013839     -0.001120      0.037421
Ti	      4.13734      3.99244      0.11812        -0.074131     -0.121257      0.183157
V	      6.11811      2.19568      4.13910        -0.075319      0.027573      0.087505
V	      6.09797      6.29337      4.20151        -0.026375      0.078617     -0.014722
Ni	      8.38558      8.24266     12.47233         0.008522      0.013501      0.030804
Ni	      8.36737      4.15138      8.29429         0.025771     -0.000875      0.030395
Ni	      8.34283      6.18693     10.41972         0.131169     -0.144528      0.035979
Ni	      4.14305      6.15300      6.31577         0.016583      0.090314     -0.081288
Ni	      4.25176      4.13147      8.32574        -0.017187     -0.085494      0.094585
Ni	      6.27645      6.13206      8.37509         0.007543      0.071914     -0.072356
O	      2.16391      2.01768      2.34558         0.020429     -0.032639      0.013819
O	      4.14397      4.15873      1.96860         0.098436     -0.027568     -0.214959
O	      4.32706      2.07465      4.18402         0.016023      0.015319      0.002370
O	      6.26036      4.00242      4.18332        -0.019744     -0.015627     -0.009167
O	      6.35259      1.98560      6.05835        -0.087910     -0.025288      0.019121
O	      8.50300      4.06217      6.27103         0.180367      0.104313     -0.103180
O	      2.13053      3.98607      4.15266        -0.009340     -0.082501      0.100456
O	      4.31759      6.14350      4.21859         0.029100      0.018424     -0.096121
O	      4.16830      4.14787      6.43501         0.029980     -0.130533     -0.195751
O	      6.32157      6.11281      5.99129         0.034761      0.013671      0.069187
O	      6.35478      4.14432      8.35767        -0.047566     -0.148318     -0.031106
O	      8.33152      6.24152      8.41687         0.101973     -0.030925     -0.186896
O	      2.02789      6.20960      6.19820        -0.085119     -0.138278      0.157937
O	      4.15235      8.26498      6.24621         0.112134      0.260852      0.048955
O	      4.26203      6.05861      8.30350        -0.100660      0.129640      0.163630
O	      6.26950      8.19641      8.56300        -0.063616      0.075188     -0.050228
O	      6.29535      6.31271     10.48277        -0.078265     -0.013185      0.052766
O	      8.24414      8.21994     10.36031        -0.006397      0.077541     -0.000271
