# total energy = -207.30944759 eV
 
CRYSTAL
PRIMVEC
0.010123 6.101349 6.244987 
6.232173 0.008408 6.247000 
4.164602 4.078715 -0.004274 
PRIMCOORD
36 1
Li	     10.37630      4.10460      6.24171        -0.005096     -0.048646      0.184749
Li	      2.09931      0.05628      2.09102        -0.090018      0.057249     -0.007702
Li	      1.99509      3.99981      2.22800         0.196726     -0.056107      0.015010
Li	      6.13278      6.12115      4.08642         0.068809     -0.014559     -0.058317
Li	      4.13092      4.13208      4.13342        -0.004325     -0.104112     -0.196517
Li	      6.24510      4.05952      6.35041         0.041199      0.021210     -0.061595
Li	      0.04254      3.96517      4.04988         0.007754      0.084823      0.061099
Li	      4.28748      4.10592      8.32613        -0.032957      0.060133      0.034165
Li	      6.20220      6.04965      8.35299        -0.029794      0.101653     -0.006427
Ti	      8.33503      6.05391      6.40645        -0.097504     -0.323664      0.174552
Ti	      2.06746      4.12473      6.18597        -0.206650      0.185449     -0.073012
Fe	      6.26384      8.18561     10.30614        -0.150185      0.022068     -0.061375
Co	      4.11002      2.18844      2.07157         0.354119     -1.569902     -0.109067
Cu	      4.18426      6.11001     10.35142         0.009564      0.097780     -0.177894
Ni	      8.28840      2.06819      6.27774         0.101136      0.022570      0.070581
Ni	      8.34816      6.10153     10.34982        -0.216752      0.027070     -0.008508
Ni	      4.22422      6.09443      2.13653         0.086239     -0.325075     -0.043647
Ni	      4.22415      6.07253      6.22929         0.014607      0.049029      0.201365
O	      6.24692      3.92710      8.35289        -0.104601      0.259078      0.059138
O	      2.08129      2.04186      2.03060         1.000777      0.047767      0.174151
O	      4.14021      4.02148      2.10336        -0.099369      0.480997      0.020596
O	      4.29942      2.01804      4.21519        -0.135103      0.262762     -0.517716
O	      6.33795      3.90952      4.14966        -0.091791      0.235590      0.007854
O	      6.15082      2.04095      6.26926        -0.108738      0.070809      0.010897
O	      8.31794      4.14690      6.11053        -0.023247      0.315896      0.145886
O	      2.03897      4.09112      4.31997        -0.073981     -0.155638      0.206775
O	      4.11404      6.07804      4.14584         0.124435      0.122860     -0.073286
O	      4.04986      4.00125      6.28244         0.041489     -0.096678      0.000163
O	      6.34469      6.17676      6.24086         0.099805     -0.022604     -0.008128
O	      8.37533      6.05565      8.25948        -0.342315      0.032569     -0.280416
O	      2.14228      6.07538      6.18913         0.014623     -0.207857      0.019788
O	      4.21495      8.12127      6.27903         0.083506      0.206929      0.620111
O	      4.18251      6.28531      8.35471        -0.019373      0.378968     -0.218436
O	      6.17762      8.19326      8.27027        -0.661479      0.060169     -0.006337
O	      6.26132      6.30754     10.36122         0.059404     -0.213677      0.000697
O	      8.19839      8.16681     10.42665         0.189087     -0.064913     -0.099199
