# total energy = -206.93585527 eV
 
CRYSTAL
PRIMVEC
0.022066 6.094733 6.103054 
6.439533 0.005994 6.117758 
4.295758 4.075911 0.001069 
PRIMCOORD
36 1
Li	      6.51758      6.11446     12.17210        -0.026550      0.080422     -0.053400
Li	      8.48848      8.09665     12.14816        -0.108903      0.039935      0.003650
Li	      4.32741      8.13510      8.07086        -0.021621      0.076824     -0.036171
Li	      6.43132      2.02488      4.21672        -0.002060     -0.027898      0.101503
Li	      6.42328      6.09616      4.15300        -0.037362      0.020270      0.003227
Li	      4.43422      2.10165      6.13709         0.041359     -0.091084     -0.034318
Li	      6.36181      3.99858      6.09794         0.113078     -0.089343      0.022994
Li	      2.25301      6.16058      4.10525        -0.045778     -0.007795      0.007896
Li	      4.31025      6.12332      6.07001         0.043603      0.079738     -0.064398
Ti	      2.20719      6.15090      8.07891        -0.244180      0.191111      0.104074
Ti	      8.54789      4.18215      4.21928         0.312031      0.035414      0.346520
Fe	      8.65208      4.06896      8.08968         0.094069     -0.156965      0.289304
Co	      6.47984      6.13987      8.12043         0.181317     -0.004391     -0.072563
Cu	      4.26557      4.04754      4.16366         0.128910      0.034593     -0.169570
Cu	      6.40195      8.11065      6.08410        -0.045541      0.028948     -0.269009
Cu	      4.30555      4.04304      8.11613        -0.119286     -0.106031      0.007568
Ni	      6.45491      2.03776      8.12328         0.003815      0.250795      0.015002
Ni	      4.33131      8.12549      4.08681        -0.010196      0.059665     -0.206532
O	      4.43225      8.13634      5.98526         0.173459     -0.030990      0.535246
O	      2.14568      1.97962      2.01143         0.214574     -0.260449     -0.000442
O	      4.30862      4.12219      2.14417         0.088547     -0.630717     -0.059400
O	      4.29058      1.97660      4.11094        -0.020603      0.085293      0.032786
O	      6.59141      4.04022      4.01534         0.062090      0.024515     -0.047190
O	      6.44253      2.03704      6.25900        -0.065752      0.050765     -0.773791
O	      8.65012      4.04481      6.09526        -0.018153      0.000683     -0.339618
O	      2.11633      4.04904      4.05568         0.197383      0.017876     -0.240357
O	      4.32093      6.07019      3.94308        -0.060792     -0.349393      0.737900
O	      4.16657      4.08235      6.12162        -0.085404     -0.008576      0.149344
O	      6.40997      6.15704      6.32670        -0.006213     -0.120211     -0.515228
O	      6.64488      4.08536      8.19737        -0.121197      0.594924     -0.330020
O	      8.57249      6.09308      8.15786        -0.411427      0.289623      0.037539
O	      2.13781      6.06906      6.22279         0.058981     -0.119257     -0.149583
O	      4.16675      6.06151      8.19833         0.110581     -0.059318     -0.074018
O	      6.31601      8.14906      8.04967         0.098228     -0.041386      0.538994
O	      6.31712      6.10178      9.96798        -0.206645      0.141656      0.557742
O	      8.72246      8.22923     10.09823        -0.264363      0.000753     -0.055681
