# total energy = -207.22658717 eV
 
CRYSTAL
PRIMVEC
-0.025092 6.240700 6.232126 
6.301672 0.003047 6.204167 
4.209512 4.150487 -0.006465 
PRIMCOORD
36 1
Li	      8.41834      2.15158      6.16132         0.062860     -0.072155     -0.151754
Li	      8.45457      4.13191      4.20422         0.050493     -0.200021     -0.058060
Li	      6.23935      2.13504      8.26240        -0.051635      0.111880      0.092035
Li	      8.31797      4.22112      8.23986        -0.138687     -0.053516      0.118764
Li	      6.29541      4.07623      6.26580         0.046285      0.063667      0.083611
Li	      8.40313      6.21694     10.31604        -0.004953      0.144713     -0.010412
Li	      2.12520      4.17837      6.18367        -0.164812     -0.038182     -0.099299
Li	      4.14345      6.18972      6.20353        -0.019244      0.091242      0.022661
Li	      4.27078      4.08399      8.20970         0.125340      0.005441      0.251952
Ti	      2.22602      6.26156      8.23907         0.393950      0.094508     -0.483005
Ti	      6.21164      6.19206      4.26481        -0.108847      0.694477      0.317583
Fe	     10.44301      4.14530      6.21844         0.306217     -0.066528     -0.399948
Co	     10.38581      8.33578     10.31871         0.607566     -0.145548     -0.239887
Cu	      4.21718      8.32102      8.26804        -0.102287     -0.226923     -0.116040
Cu	      6.34790      8.34325     10.38979         0.444718      0.146158      0.406234
Cu	      4.11804      4.15572      4.19412         0.006880      0.319734     -0.166768
Cu	      8.40897      6.25152      6.24010        -0.080190     -0.317964      0.542274
Cu	      6.33323      6.21749      8.27415        -0.027813     -0.291184     -0.355531
O	      4.15908      6.32303      8.23360        -0.311193      0.030500      0.032148
O	      6.25055      8.38026      8.41234        -0.031083     -0.029996      0.197376
O	      8.62841      8.28476     10.33878        -0.505368      0.152370      0.032234
O	      2.16593      1.96164      2.20886        -0.074624     -0.124390     -0.033210
O	      4.32925      4.06951      2.09218        -0.057290      0.146531      0.322557
O	      3.99727      2.20620      4.25333         0.083481     -0.044253     -0.209307
O	      6.42657      4.18719      4.06079        -0.031127      0.051175     -0.063887
O	      6.25228      2.03824      6.13035         0.063967     -0.094210     -0.293679
O	      8.51155      4.22099      6.22577        -0.103044      0.183749     -0.014142
O	      1.80622      3.99338      4.13544         0.229808     -0.302683      0.057778
O	      4.28926      6.13388      4.14176        -0.333695      0.127329     -0.008537
O	      4.16466      4.08929      6.13026        -0.043462      0.019219     -0.152638
O	      6.32718      6.19005      6.22196        -0.045420      0.000549     -0.822829
O	      6.27506      4.25075      8.39607        -0.089800     -0.199841      0.504240
O	      8.30827      6.24799      8.21331         0.156927      0.052984     -0.224347
O	      2.00196      6.25064      6.37807        -0.015935     -0.015045      0.350976
O	      4.17332      8.41610      6.04468        -0.011589      0.053078     -0.076083
O	      6.33257      6.32807     10.27485        -0.226395     -0.266865      0.646938
