# total energy = -206.24267728 eV
 
CRYSTAL
PRIMVEC
0.024460 6.158821 6.202773 
6.327013 0.016893 6.209657 
4.218346 4.110522 0.011304 
PRIMCOORD
36 1
Li	      4.33615      8.19644      8.32567         0.007731      0.050078     -0.015291
Li	      6.31810      8.19659     10.21551        -0.018543     -0.024280      0.041195
Li	      2.09609      4.11678      2.18738        -0.032280     -0.051821      0.002392
Li	      2.19762      2.15465      4.11534        -0.021521      0.077578      0.008724
Li	      4.07970      4.07671      4.11462        -0.042317     -0.021875      0.009177
Li	      0.13229      4.12831      4.06136         0.023468     -0.001735     -0.053406
Li	      6.32709      8.22836      6.22513        -0.015647     -0.079182     -0.010704
Li	      8.31586      8.24258      8.32323         0.025127     -0.007859     -0.029187
Li	      6.35424      6.29300      8.34184        -0.028733      0.090750     -0.017152
Ti	      2.27582      8.19417      6.14121         0.121349      0.154201     -0.005837
Ti	      6.21684      4.17757      6.12061        -0.213104      0.041034      0.150415
Fe	      4.21483      6.16572      2.16400         0.093274      0.013460     -0.031413
Co	      8.42265      6.15530      6.20866        -0.224520      0.147053      0.054694
Ni	      0.07312      6.15343      6.16491        -0.046894     -0.044074      0.022185
Ni	      4.31344      6.17324     10.26123         0.064192     -0.009303      0.043909
Ni	      8.40282      6.12754     10.27972        -0.113231      0.037210     -0.016763
Ni	      6.34541      4.09726      2.14546         0.376848     -0.909544      0.194183
Ni	      4.23347      6.15318      6.21928         0.081425      0.030544     -0.071881
O	      6.29930      8.40511      8.27604        -0.185326     -0.461175     -0.025782
O	      2.04144      1.94833      2.02349         0.031089      0.679077     -0.231614
O	      4.36249      4.24695      2.03802        -0.485711      0.045611      0.135095
O	      4.21226      2.01946      4.35719         0.173088      0.076618      0.303656
O	      6.42452      4.12265      4.26409        -0.116673      0.002509     -0.021115
O	      6.41234      2.09237      6.28988        -0.040756      0.254889     -0.081496
O	      8.44231      4.08148      6.19973        -0.147477     -0.013113      0.011289
O	      2.10045      4.23364      4.13821        -0.006984     -0.233627      0.041485
O	      4.07601      6.16310      4.09513         0.044828     -0.012481      0.083722
O	      4.33021      4.06376      6.18371         0.364935     -0.242279     -0.009028
O	      6.29937      6.06557      6.30629         0.248501     -0.289668     -0.078470
O	      6.37556      3.91993      8.16920         0.012370      0.341743     -0.175161
O	      8.53457      6.16024      8.15221        -0.021363     -0.098711     -0.563062
O	      2.15293      6.25151      6.18339        -0.016199      0.170280      0.238128
O	      4.12595      8.22118      6.24876        -0.277579     -0.016289      0.019058
O	      4.08419      6.15637      8.26914         0.342010      0.255379     -0.025250
O	      6.40813      6.15482     10.35624        -0.011649      0.027575     -0.105206
O	      8.42324      8.15407     10.45322         0.056273      0.021429      0.208511
