# total energy = -211.29559296 eV
 
CRYSTAL
PRIMVEC
0.011774 6.357895 6.123899 
6.191666 0.008932 6.127008 
4.099034 4.211568 0.035071 
PRIMCOORD
36 1
Li	      8.24411      8.47654     12.14162        -0.009199     -0.017935     -0.028607
Li	      8.31693     10.44765     10.20862         0.031070     -0.026569     -0.056604
Li	      6.31187      8.35303     10.22576        -0.048768      0.041439      0.018241
Li	      8.20159      4.28737      8.21392         0.005870      0.017126      0.032319
Li	      6.10121      6.41938      4.16282         0.014715     -0.007249      0.030543
Li	      4.04838      4.29263      4.14398         0.021457     -0.057920      0.033881
Li	      6.17401      4.26752     10.14380         0.025410      0.056323      0.024025
Li	      8.30153      8.36444      8.23748        -0.075116     -0.021280      0.014261
Li	      6.20712      6.31114      8.25436         0.059345     -0.028236     -0.013791
Ti	      4.02431      2.11039      2.19870         0.017766     -0.153794      0.352285
Ti	      6.28738      4.21710      6.08906         0.299741     -0.044032     -0.176143
Fe	      6.14340      4.22385      2.18514         0.237106     -0.088511     -0.215834
Co	      4.09725      6.32558      2.10239        -0.097125      0.571059      0.363597
Co	      8.25154      6.41215     10.22070        -0.246569      0.147182     -0.021413
Cu	      2.07475      4.28936      6.12193         0.059319     -0.072469      0.010097
Ni	      6.18290      6.38965     12.17911        -0.003480      0.027764      0.014344
Ni	      4.09762      2.15589      6.08162        -0.075922     -0.002035      0.034353
Ni	      4.12116      6.37031      6.10574         0.049563     -0.032314     -0.000137
O	      2.05790      2.07466      2.09345         0.789173      0.013628      0.006837
O	      4.13348      4.23812      2.04281         0.003946     -0.533882      0.051359
O	      4.11735      2.14259      4.00950        -0.052553      0.053028     -0.226406
O	      6.16398      4.13294      4.12739        -0.002297      0.047130      0.431746
O	      6.11748      2.16267      6.24682         0.098172      0.227722     -1.104613
O	      8.18690      4.24715      6.08628        -0.426799     -0.153846      0.015498
O	      2.06167      4.43939      4.27187         0.005603      0.048215     -0.184196
O	      3.98014      6.35121      4.04170        -0.055146     -0.085753      0.649893
O	      4.04832      4.23705      6.15918        -0.016797     -0.078700      0.019039
O	      6.14655      6.12185      6.18324         0.042829     -0.324107     -0.099607
O	      6.21602      4.04474      8.05614         0.224550      0.436590     -0.276092
O	      8.38391      6.29517      8.28087        -1.032555     -0.212255      0.215378
O	      2.08524      6.51274      6.09324        -0.139611      0.222337      0.040038
O	      4.25033      8.47873      6.22888         0.030147      0.082841     -0.048449
O	      4.05805      6.52146      8.17388         0.040632      0.080076      0.070226
O	      6.06476      8.56103      8.04857         0.043349     -0.022580      0.155035
O	      6.36732      6.35899     10.20360         0.136186     -0.011821     -0.101271
O	      8.26271      8.25820     10.17892         0.045985     -0.097168     -0.029831
