# total energy = -210.79857648 eV
 
CRYSTAL
PRIMVEC
0.008617 6.306303 6.282566 
6.109437 0.032805 6.258941 
4.095623 4.211083 -0.000495 
PRIMCOORD
36 1
Li	      4.09411      4.22401      0.10422        -0.001872     -0.077574      0.041076
Li	      4.06957      2.16802      2.12989        -0.053637      0.055508     -0.107086
Li	      0.06872      2.08251      2.04978         0.043141     -0.051603     -0.053214
Li	      8.16329      4.18656      8.27172         0.038856     -0.050367     -0.051603
Li	      6.10765      6.25663      4.15050        -0.071177      0.020105      0.044426
Li	      4.15802      4.20976      4.12335        -0.085276      0.110245     -0.038512
Li	      6.12706      4.23937      6.39451        -0.011084     -0.031873      0.126261
Li	      4.12667      6.26796      6.31595        -0.021296      0.056919     -0.058346
Li	      4.08935      4.30636      8.28843         0.028530     -0.026510     -0.103199
Ti	      4.12397      2.16658      6.16229         0.052456      0.162737      0.235764
Ti	      2.14561      6.24336      4.03347         0.315653     -0.200899     -0.080725
Fe	      6.09850      4.23521     10.35272         0.034833     -0.158326      0.496387
Co	      2.10784      2.10683      0.08656        -0.751533     -0.152218     -0.392544
Co	      6.10206      4.22533      2.08066        -0.154458      0.182497     -0.441855
Cu	      4.02453      0.05348      4.15010         0.091825      0.110786      0.166324
Cu	      6.12299      8.44287      6.33115        -0.170774      0.158027      0.138352
Ni	      6.10419      2.17886      4.14695         0.071520     -0.193732      0.026016
Ni	      6.05234      6.30566      8.33590         0.068518      0.060110     -0.146397
O	      2.05138      1.92595      1.98959         0.223017     -0.076182      0.039006
O	      4.28311      4.22160      2.08835         0.087444     -0.051514      0.140227
O	      4.07576      2.21692      4.30964        -0.184079     -0.238385     -0.175373
O	      6.16668      4.17776      3.98140         0.052156      0.278372     -0.091310
O	      6.09731      2.17723      6.22376        -0.070922      0.004549      0.128127
O	      8.14129      4.28290      6.20223        -0.003546      0.347407     -0.113694
O	      1.97454      4.32362      4.30615         0.077925      0.198097     -0.181702
O	      4.00163      6.36764      4.18948        -0.243107     -0.106024     -0.095169
O	      4.03603      4.08832      6.32297         0.343948     -0.217338     -0.110742
O	      6.21731      6.41420      6.33494         0.051046     -0.261186     -0.094974
O	      6.11311      4.27575      8.45613        -0.016168     -0.079309      0.006413
O	      8.16324      6.28567      8.41984         0.118245      0.007154      0.316339
O	      2.05570      6.29364      6.34601         0.029747     -0.089761      0.091664
O	      4.00908      8.43032      6.19011         0.210634     -0.015516     -0.319656
O	      3.97993      6.32648      8.45253        -0.124644     -0.017448      0.199396
O	      6.12220      8.56309      8.34233         0.048927      0.092775      0.121424
O	      6.14039      6.33979     10.39372        -0.152301      0.011990      0.033161
O	      8.14795      8.23596     10.57449         0.127454      0.238488      0.305738
