# total energy = -136.47801555 eV
 
CRYSTAL
PRIMVEC
2.071956 2.072073 3.940788 
-2.042406 -6.244993 3.940261 
4.202463 -4.202587 -0.000045 
PRIMCOORD
24 1
Li	      1.06401     -3.10100      4.92050         0.019089     -0.013415      0.009014
Li	     -1.01958     -5.18084      4.92318        -0.003495     -0.006354      0.008783
Li	      3.20227     -5.23978      4.92059        -0.014074      0.024017      0.007478
Li	      1.12178     -7.32295      4.92314        -0.006062     -0.002971      0.008738
Li	      3.11813     -1.09322      4.93767         0.026703     -0.012448     -0.014614
Li	      5.21072     -3.18533      4.93754        -0.016922      0.027884     -0.011387
Mn	      3.19658     -7.30910      6.88668        -0.028364     -0.032127      0.002628
Mn	      3.11915     -3.18404      2.97020        -0.002404     -0.004665      0.034830
Mn	      1.07700     -5.22615      6.89911        -0.012910     -0.012096     -0.033462
Ni	      1.07195     -5.23140      2.97205        -0.035306     -0.034589     -0.006521
Ni	      1.02898     -1.07178      2.93781         0.035637      0.036528     -0.041491
Ni	      3.20281     -7.30288      2.95645         0.009869      0.006350      0.026294
O	      0.97246     -3.13855      6.90638        -0.100331     -0.070276     -0.006590
O	      5.16522     -3.06392      2.95544        -0.017939      0.076235     -0.003868
O	      3.16454     -5.33082      6.90643        -0.070064     -0.098991     -0.007111
O	      3.23929     -1.13777      2.95544         0.076558     -0.020444     -0.003364
O	      1.14568     -3.15512      2.94804         0.102890      0.012126      0.009350
O	      3.14797     -5.15754      2.94803         0.013574      0.103443      0.007950
O	      1.09383     -1.00715      4.91776         0.009046      0.010733      0.020669
O	      3.20644     -7.29926      4.99892         0.018417      0.019746      0.117221
O	      3.12958     -3.17368      4.85474        -0.000118      0.000662     -0.147608
O	      1.03903     -5.26403      5.01423        -0.001852     -0.004563      0.097234
O	      1.04427     -1.05614      0.90903        -0.003173     -0.005446     -0.064812
O	      3.15640     -3.14666      0.98339         0.001230      0.000658     -0.009361
