# total energy = -209.35224802 eV
 
CRYSTAL
PRIMVEC
-0.038715 6.105971 6.313639 
6.172528 -0.032790 6.306736 
4.097020 4.048663 -0.003094 
PRIMCOORD
36 1
Li	      1.97904      2.05210      0.12637        -0.141656      0.016732      0.136359
Li	      6.07894      4.05259      2.15107        -0.053874      0.137636      0.072227
Li	      4.00009      2.08425      2.11989        -0.134774     -0.019559      0.030326
Li	      6.16591      2.03089      4.24676        -0.073265      0.091814      0.187821
Li	      0.06818      2.02583      2.01449         0.135102     -0.112139     -0.149478
Li	      2.07572      2.01454      4.09643         0.035624     -0.093010     -0.134280
Li	      6.16176      3.95030      6.29421         0.104811     -0.142656     -0.123530
Li	      0.01099      4.05844      4.17412         0.061845     -0.021105      0.068659
Li	      2.05409      4.06854      6.31482        -0.070675      0.006242     -0.032991
Ti	      4.06238      6.20067      6.24297        -0.014674      0.629832     -0.142595
Ti	      6.12132      6.12105      8.40470        -0.276344      0.304015     -0.132939
Fe	      1.99049      6.08851      4.25915        -0.003164     -0.001165      0.102349
Co	      8.12713      4.01873      4.22346        -0.080665      0.394487     -0.008983
Co	      4.11537      4.06779      8.41119         0.109006     -0.060009     -0.286032
Ni	      4.10665      4.03617      0.04873        -0.025080     -0.034842      0.072047
Ni	      2.04434      3.95540      2.14107        -0.018181      0.150251     -0.211131
Ni	      4.12420      4.01057      4.14284         0.305008     -0.205817      0.045502
Ni	      4.15519      2.02870      6.26326        -0.099274     -0.128313     -0.133926
O	      2.01468      2.05910      2.09587        -0.064267     -0.003242     -0.005263
O	      4.02740      4.03046      2.12626         0.021913     -0.010089      0.059942
O	      4.11251      1.85357      4.24842        -0.073692      0.276664     -0.122425
O	      6.30927      4.02586      4.21066        -0.386066     -0.033927     -0.080148
O	      6.10582      1.93665      6.31136         0.227722      0.056790      0.048035
O	      8.22278      4.03138      6.10860         0.021919     -0.120809      0.558272
O	      2.08805      4.14731      4.15969        -0.086015      0.002921      0.120695
O	      4.05109      6.05572      4.34782        -0.074409      0.106210      0.195704
O	      4.09577      4.10126      6.41400        -0.012286      0.064305      0.014180
O	      6.04936      6.08588      6.45574        -0.115941      0.016230      0.335171
O	      6.10944      4.14068      8.41961         0.236060     -0.089467     -0.016599
O	      8.12954      6.14497      8.47467        -0.097494     -0.721628      0.095281
O	      2.08511      6.11313      6.22708         0.175393     -0.045585      0.011542
O	      4.09252      8.03390      6.32762         0.038567     -0.414052     -0.042274
O	      4.11403      6.00615      8.45139         0.449334      0.615907     -0.393736
O	      6.27552      8.02007      8.41696        -0.315565     -0.227490     -0.006586
O	      6.07560      6.06011     10.45531         0.338761     -0.010787     -0.220498
O	      8.20777      8.18938     10.32793        -0.043707     -0.374346      0.089300
