# total energy = -213.17932220 eV
 
CRYSTAL
PRIMVEC
0.003165 6.157693 6.443375 
6.172060 0.035775 6.410776 
4.122225 4.090797 0.016663 
PRIMCOORD
36 1
Li	      2.07464      2.03091      0.07834         0.020891     -0.016449     -0.030535
Li	     10.23272      6.21870      8.61182        -0.004809     -0.039912     -0.156474
Li	      1.98000      2.15645      4.27961         0.068825      0.017537      0.123204
Li	      4.01817      4.16071      4.35762        -0.034080     -0.081345      0.121735
Li	      8.24203      6.22530      6.52694        -0.024680      0.025562     -0.070043
Li	      6.08459      4.13761      6.52841        -0.058048      0.041754     -0.050001
Li	      2.15167      6.08443      4.16948        -0.020745     -0.029229      0.007599
Li	      2.11050      4.09903      6.39256         0.034162     -0.037575     -0.100428
Li	      4.13708      4.07370      8.46865        -0.039342      0.050081     -0.085611
Ti	      8.23527      4.12825      4.42303        -0.082934      0.264081      0.509513
Ti	      6.25559      8.22478     10.80687        -0.125377      0.046296      0.354518
Fe	      2.04012      0.08118      2.07982         0.039847     -0.087843     -0.119957
Co	      0.06707      6.10749      6.45082         0.138202      0.068281     -0.006747
Co	      0.03790      4.07525      4.25957        -0.180607     -0.122162      0.294972
Co	      4.16472      6.12069      6.31965        -0.264445     -0.182833      0.076483
Cu	      2.05751      4.08992      2.17151        -0.094012     -0.326891      0.184765
Ni	      4.11389      2.05898      2.15340         0.084967      0.206331     -0.043857
Ni	      6.19735      6.15248      8.51363        -0.009414      0.030429     -0.302308
O	      8.19896      5.99934      8.53165         0.172543      0.293464     -0.028157
O	      2.09115      2.10351      2.14485        -0.117126      0.022957      0.025383
O	      4.17667      4.07707      2.10430        -0.025480      0.211986      0.007952
O	      4.23527      1.97538      4.28687         0.059115     -0.090448     -0.084359
O	      6.27548      4.01422      4.25043         0.148937      0.059926     -0.106214
O	      6.20015      2.01822      6.22250         0.052994      0.127001     -0.205136
O	      8.27657      4.11356      6.27655        -0.110100     -0.045332     -0.308686
O	      1.87423      4.11815      4.25525         0.182786      0.024268     -0.124384
O	      4.11428      6.29959      4.37065        -0.026696     -0.105902      0.800708
O	      4.09795      4.26611      6.38040         0.122425      0.421931     -0.010581
O	      5.98249      6.16681      6.48466         0.034629     -0.020182     -0.086801
O	      6.17985      4.13343      8.76568        -0.039433     -0.229350     -0.012192
O	      2.17897      6.15784      6.57135         0.078697      0.127895     -0.101457
O	      4.13825      8.14286      6.27477        -0.036873     -0.278304      0.021047
O	      4.08271      6.21377      8.72518        -0.025140     -0.197099     -0.407458
O	      6.15593      8.25746      8.75000         0.165858     -0.002032      0.027015
O	      6.13765      6.17050     10.68621        -0.048705     -0.080088     -0.032416
O	      8.22612      8.29763     10.71171        -0.036832     -0.066805     -0.081093
