# total energy = -213.56246144 eV
 
CRYSTAL
PRIMVEC
0.021836 6.255617 6.201934 
6.143741 -0.002971 6.226901 
4.095317 4.185451 -0.000597 
PRIMCOORD
36 1
Li	      8.19651      2.15624      6.26583        -0.065399      0.048372     -0.018829
Li	      4.03479      0.09654      4.14566         0.041881     -0.012517     -0.049069
Li	      4.10783      6.27735      2.13722         0.019062      0.005132      0.056070
Li	      6.22338      6.18107      4.20517        -0.006417     -0.015853     -0.089292
Li	      4.16516      4.15591      4.26214        -0.061131      0.027318      0.055528
Li	      3.95906      2.19619      6.10155         0.084356      0.053993      0.007715
Li	      6.05697      4.28646      6.08214        -0.013306     -0.116987      0.048202
Li	      6.22774      8.23026      6.17528         0.039449      0.071352      0.013407
Li	      6.12326      6.26640      8.12963         0.034483     -0.018455      0.115676
Ti	      6.18721      0.17340      6.23018        -0.139621      0.230245     -0.212751
Ti	      8.09475      4.18335      8.28940        -0.172385     -0.064221     -0.075335
Fe	      4.07745      8.28035      4.24546         0.041864     -0.036938     -0.160347
Co	      4.15460      8.33097      8.26792        -0.140489     -0.096532      0.059832
Co	      2.06025      6.23680      4.15745         0.059809      0.016624     -0.202869
Co	      4.12970      6.23557      6.22198         1.626290     -0.488008     -0.083844
Cu	      2.08053      0.01874      2.11611        -0.060892     -0.006106      0.271245
Cu	      6.11966      2.15902      4.10422         0.027164      0.046419      0.107715
Ni	      8.20820      8.27200      8.21745         0.023297     -0.030398      0.107706
O	      2.18594      2.27842      2.11923         0.034197      0.249500     -0.035686
O	      4.14367      4.06491      1.97248        -0.048470      0.050750     -0.060211
O	      4.17955      2.08172      3.97378        -0.037562      0.064543     -0.075983
O	      6.19199      4.11409      4.06353        -0.052356      0.117140      0.009779
O	      6.16887      2.00634      6.17642         0.009237     -0.389710      0.117128
O	      8.32516      4.23517      6.34242         0.039533      0.017003      0.208985
O	      2.01823      4.30302      4.07357         0.052610     -0.024117     -0.053766
O	      3.98481      6.29338      4.26126        -0.354782      0.081037     -1.029160
O	      4.08748      4.31104      6.27747        -0.160378     -1.034146     -0.060736
O	      6.01915      6.25394      6.15875         0.090903      0.116333     -0.024164
O	      6.21700      4.10974      8.38896         0.304496      0.130154     -0.137220
O	      8.23698      6.17903      8.44885        -0.031135     -0.287545      0.051089
O	      2.04923      6.27107      6.16531        -0.565624      0.099292     -0.127065
O	      4.10850      8.29942      6.24213        -0.093308      1.056883      0.193699
O	      4.05134      6.38313      8.14922        -0.316066      0.172665      1.002184
O	      6.09135      8.21989      8.36406        -0.193138      0.033204     -0.200874
O	      6.22101      6.12997     10.48132         0.094725      0.120477      0.187096
O	      8.21275      8.19633     10.29057        -0.110899     -0.186902      0.084144
