# total energy = -214.04617833 eV
 
CRYSTAL
PRIMVEC
-0.046526 6.224923 6.227211 
6.087973 -0.071911 6.252937 
4.042715 4.151219 -0.032137 
PRIMCOORD
36 1
Li	      0.02718      6.18916      6.14412         0.005507     -0.042785     -0.056124
Li	      1.97359      8.26076      6.17371         0.073769     -0.024548     -0.073610
Li	      6.02856     10.28260      8.25868         0.023101     -0.084771      0.002127
Li	      1.97957      2.12028      4.10418        -0.022686      0.032990      0.023265
Li	      6.06379      4.14990     10.37967        -0.014601      0.017747      0.020314
Li	      8.00380      6.15788     10.36700        -0.012141     -0.002867      0.060573
Li	      6.01020      8.31814      6.27806        -0.005176     -0.012026      0.140687
Li	      7.99031      8.20543      8.39161         0.007006      0.045134      0.002996
Li	      6.08312      6.25700      8.40578        -0.073636      0.038504     -0.006496
Ti	      6.14418      4.12316      6.29084         0.248207      0.118628      0.083529
Ti	      3.87821      6.30657      6.25712        -0.297297      0.382964      0.191236
Fe	      3.96310      4.17040      4.13674         0.129219      0.029247      0.054550
Co	      4.02457      6.14971     10.32470         0.081030     -0.075675     -0.037191
Co	      6.04086      8.23498     10.33170         0.341198     -0.050211     -0.063411
Co	      2.03657      4.13379      2.06439        -0.054299     -0.050583     -0.001599
Cu	      4.00555      8.26843      8.27988        -0.019481     -0.003527     -0.127014
Cu	      4.07903      6.19375      2.07720         0.123088     -0.039709      0.091134
Cu	      8.07939      6.20383      6.26366        -0.036541     -0.157254     -0.063417
O	      5.97743      8.26489      8.42647         0.102217      0.057051      0.111180
O	      1.99500      2.20389      2.05560         0.011936      0.120735     -0.009754
O	      3.97151      4.13624      2.11247        -0.049274      0.205680     -0.092599
O	      4.12196      1.97660      4.08019        -0.188189      0.085354      0.392054
O	      6.09452      4.00268      4.20161        -0.032050      0.027018      0.020640
O	      5.98293      2.12144      6.05001         0.108088      0.047324     -0.250903
O	      8.06268      4.05388      6.17430        -0.262751     -0.219780      0.000348
O	      2.04829      4.12596      3.97280        -0.109174      0.018490     -0.064914
O	      4.05477      6.13372      4.34110         0.010204      0.073010      0.130383
O	      4.10543      4.18499      6.18649         0.116137      0.250769      0.034861
O	      6.09582      6.05741      6.24323        -0.249753     -0.142788     -0.031879
O	      6.16363      3.99652      8.22248         0.148342      0.003186     -0.130369
O	      8.22397      5.99907      8.29954        -0.155346     -0.135215     -0.205931
O	      2.06927      6.19886      6.24804         0.241805      0.013936     -0.016974
O	      4.05426      8.18436      6.26430        -0.038048     -0.211645     -0.151473
O	      3.99522      6.23502      8.34964        -0.064666     -0.386349      0.025478
O	      5.91840      6.29353     10.38135        -0.050183      0.038942     -0.031901
O	      7.96207      8.40360     10.33815        -0.035563      0.033023      0.030206
