# total energy = -211.60847396 eV
 
CRYSTAL
PRIMVEC
-0.041028 6.292679 6.147830 
6.295030 -0.051936 6.158161 
4.157572 4.162751 0.004779 
PRIMCOORD
36 1
Li	      8.29135      2.13923      6.08297         0.038609      0.004098     -0.007475
Li	      8.30728     10.32679     10.33373         0.049167     -0.060399      0.016504
Li	      6.32306      8.35383     10.28304         0.018077     -0.041277      0.044853
Li	      6.29519      2.13555      8.18004         0.095338     -0.056763     -0.027229
Li	      8.24980      4.13924      8.18160         0.013407     -0.004588      0.020924
Li	      2.08173      2.07084      4.08026         0.081659      0.042694      0.124953
Li	      6.39549      4.03888      6.19165         0.018360      0.053121     -0.073685
Li	     10.30799      8.26120     10.18691         0.005639      0.097912      0.053866
Li	      8.38081      6.33899     10.18512        -0.133683     -0.043947      0.064236
Ti	      2.12914      0.14839      2.12733        -0.409894      0.409549      0.161546
Ti	      6.11249      8.31766      6.06471        -0.182186     -0.227821     -0.391314
Fe	      4.18776      4.16497      4.11365         0.009662     -0.246346     -0.117558
Co	      6.15044      0.10110      5.89820         0.102237     -0.135151      0.967319
Co	      4.16290      6.23233      6.15144         0.063007      0.026838     -0.916835
Co	      6.23837      6.22446      8.26820         0.035648     -0.488403      0.758660
Ni	      4.20107      2.07035      2.13917        -0.036706      0.125888     -0.018188
Ni	      8.37089      6.15023      6.16334        -0.186077     -0.002003     -0.072539
Ni	      8.37246      8.27533      8.26706        -0.102020     -0.001975     -0.085412
O	      8.34475      8.31769     10.12417        -0.039500     -0.034302      0.256736
O	      2.14081      1.97425      2.03878        -0.103380     -0.406362      0.015782
O	      4.34137      4.11415      2.02691         0.069059      0.203795      0.028216
O	      4.15214      2.21094      4.14956         0.062966      0.006063     -0.045458
O	      6.24317      4.13957      3.99759        -0.023703      0.078658     -0.320643
O	      6.25530      1.97464      6.18422        -0.089185     -0.590750     -0.214700
O	      8.43186      4.12735      6.16717         0.525019      0.180327     -0.191247
O	      2.14359      4.12809      4.22690         0.023134      0.094129      0.196771
O	      4.18096      6.12716      4.24197        -0.051398      0.210763     -0.046842
O	      4.08963      4.25568      6.22053        -0.009009     -0.307402     -0.078959
O	      6.13507      6.31705      6.31904         1.118016      0.738765     -0.987024
O	      6.16190      4.32017      8.21602         0.182108     -0.304035     -0.060315
O	      8.13428      6.26464      8.15827         0.139237     -0.140953      0.155698
O	      2.17853      6.13185      6.23790        -1.215518     -0.227479      0.250703
O	      4.20677      8.23709      6.18634         0.074693      0.433860     -0.145400
O	      4.16828      6.27958      8.13108        -0.223068     -0.075627      0.259468
O	      6.26744      8.26322      8.15232         0.046696      0.462358     -0.017370
O	      6.27913      6.22331     10.24573         0.033591      0.226765      0.441958
