# total energy = -216.56141984 eV
 
CRYSTAL
PRIMVEC
-0.027985 6.149087 6.209483 
6.306735 -0.024299 6.205895 
4.199481 4.091990 -0.011125 
PRIMCOORD
36 1
Li	      0.02582      6.09176      6.10914        -0.021606     -0.001983      0.044319
Li	      8.41102      8.10288     12.29182        -0.005659      0.023938      0.059711
Li	      4.19431      8.18326      8.26017        -0.000784     -0.004354     -0.003008
Li	      6.35660      2.04384      4.21647        -0.028156      0.032069      0.055540
Li	      4.24584      2.13810      6.14910         0.000737      0.045813      0.007675
Li	      6.20736      4.05780      6.17328        -0.017339      0.015866      0.027818
Li	     10.33953      8.20705     10.38052        -0.039535     -0.048453     -0.013242
Li	      2.09764      4.14171      6.18607         0.011979     -0.053294     -0.003701
Li	      8.38634      8.17060      8.35912        -0.011722      0.048090      0.015344
Ti	      8.39307      4.02916      8.10864         0.026157     -0.030038     -0.448739
Ti	      6.23086      6.27805      8.27142        -0.216434      0.001079     -0.167813
Fe	      6.34832      6.14430      4.23687        -0.053669     -0.010087      0.081993
Co	      6.26665     10.18070      8.22579        -0.069567     -0.104554     -0.058329
Co	      6.27778      2.06395      8.12734         0.028794     -0.031542     -0.225172
Co	      4.20774      4.08077      4.14038         0.084884      0.024345      0.061977
Co	      4.13351      6.19167      6.20451         0.045848     -0.176748      0.043383
Cu	      8.32144      6.18397     10.41396        -0.038732     -0.029526      0.038461
Ni	      8.41458      4.01274      4.22432        -0.155896      0.100626      0.008743
O	      2.05009      2.10673      2.15074        -0.056690      0.028867     -0.077774
O	      4.14241      4.09074      2.16994        -0.166631      0.121736     -0.004659
O	      4.09277      2.09904      4.18640         0.132705      0.076920     -0.053821
O	      6.22863      4.13888      4.08689        -0.006128     -0.062660     -0.052578
O	      6.25128      2.02607      6.36691         0.039683     -0.000628      0.211627
O	      8.46747      4.04638      6.27914        -0.049981      0.014971      0.473849
O	      2.26328      4.08568      4.07038         0.028160      0.059526     -0.057939
O	      4.26134      6.02698      4.04981        -0.137469     -0.034892     -0.076750
O	      4.20124      4.26656      6.05138        -0.001832     -0.004559     -0.084407
O	      6.27084      6.12625      6.26263         0.043866      0.024460      0.192629
O	      6.45452      4.11407      8.29732         0.168536     -0.024752      0.012531
O	      8.33256      6.05643      8.35304        -0.009622     -0.044820     -0.095179
O	      2.09564      6.12371      6.18876         0.003892      0.006700      0.110838
O	      4.19414      7.96711      6.17592         0.006542      0.148139     -0.022129
O	      4.26006      6.09630      8.29551         0.259913      0.008852      0.014206
O	      6.28938      8.09203      8.24446         0.024876     -0.005656      0.044832
O	      6.21993      6.11997     10.23843         0.224101      0.021917     -0.059498
O	      8.35938      8.16327     10.34569        -0.043221     -0.135367     -0.000738
