# total energy = -217.43291699 eV
 
CRYSTAL
PRIMVEC
-0.002954 6.458313 6.114450 
6.088803 0.004083 6.106770 
4.037061 4.279010 0.024801 
PRIMCOORD
36 1
Li	      8.14496      2.29052      6.06961         0.030261      0.065066     -0.025227
Li	      6.06051     10.65188      8.25138         0.003451     -0.081931     -0.101418
Li	      8.08635     10.66119     10.16672         0.007410     -0.024205     -0.041534
Li	      6.15825      6.25329      4.11608         0.053796     -0.035053     -0.011487
Li	      8.02468      6.43862      6.09781        -0.020706     -0.019604      0.017780
Li	      6.18746      4.28163      6.06775         0.030320      0.046520      0.016295
Li	      5.97109      4.44938     10.17361        -0.004942      0.040235      0.004479
Li	      8.06504      8.55005      8.23534         0.011488      0.062032     -0.075186
Li	      6.11209      6.43578      8.19402        -0.023116     -0.030036     -0.017586
Ti	      6.15918      2.30765      8.04487         0.069789      0.237997     -0.363338
Ti	      4.13406      6.39854      6.24647         0.043976     -0.025465      0.553190
Fe	      6.09659      2.19007      4.06263        -0.021662     -0.069754      0.052272
Co	      8.12256      4.34589      8.14186        -0.027506      0.046638      0.308704
Co	      4.06159      4.32436      4.07129        -0.089025     -0.080859     -0.013035
Co	      8.09590      6.45811     10.19871        -0.041084     -0.119341      0.095011
Co	      6.03130      8.54942      6.11562         0.083680      0.011344      0.053046
Cu	      6.08505      6.46535     12.20734        -0.070137      0.036147      0.089067
Cu	      3.99737      2.06717      2.07205        -0.055410     -0.073392     -0.016128
O	      1.99323      2.19717      2.08037         0.024225      0.789250     -0.076586
O	      3.96263      4.48814      2.10638        -0.088932      0.157686      0.162974
O	      4.08381      2.36331      4.01943        -0.105479      0.084341      0.063053
O	      6.00289      4.19214      4.09754        -0.035650      0.166164     -0.071789
O	      6.07585      2.26200      6.18499         0.005932      0.162626      0.347288
O	      8.20198      4.33397      6.26122        -0.080067      0.032239      0.129413
O	      2.10322      4.48461      4.08520         0.066899      0.086479     -0.290720
O	      3.96317      6.30043      4.08900        -0.000457     -0.001838      0.041723
O	      3.92961      4.39524      5.98718        -0.017539     -0.014391      0.058328
O	      6.00355      6.55762      6.10022        -0.087453      0.035052     -0.033177
O	      6.20540      4.22081      8.18067         0.042898     -0.222066      0.020760
O	      8.20338      6.46876      8.27870        -0.213527     -0.855124     -0.091015
O	      1.98466      6.22936      6.02762         0.043800     -0.025492     -0.021681
O	      4.07972      8.37637      6.14857         0.026455     -0.205550     -0.179856
O	      4.02184      6.25792      8.06387         0.055700     -0.051463     -0.443833
O	      5.95246      8.56520      8.07410         0.127460     -0.033862      0.037971
O	      6.13843      6.54496     10.23236         0.115172     -0.051053     -0.110222
O	      8.03453      8.41915     10.23527         0.139980     -0.039337     -0.067535
