# total energy = -215.97262560 eV
 
CRYSTAL
PRIMVEC
0.018854 6.184929 6.260463 
6.251030 -0.018443 6.296982 
4.136755 4.117555 0.018385 
PRIMCOORD
36 1
Li	      6.16426      0.10326      6.31564        -0.002491      0.014624     -0.011046
Li	      8.18075      2.09265      6.32418         0.031450      0.007827      0.001913
Li	      6.13562      4.11807      2.23234        -0.027714      0.023931     -0.041961
Li	      8.27167      4.16244      4.28682         0.092792     -0.009490     -0.009757
Li	      6.20898      1.97955      4.30896        -0.016057     -0.100075      0.001268
Li	     10.34898      6.08124      8.28985         0.000186      0.015139     -0.012019
Li	      4.23160      4.05190      4.10566        -0.000254     -0.002373     -0.033868
Li	      8.40042      6.09730      6.38833         0.003464     -0.000430      0.107638
Li	      6.33903      6.24042      8.38862        -0.056770      0.017792      0.014306
Ti	      6.19062      4.24323     10.33061        -0.346026      0.182605     -0.081607
Ti	      4.08956      6.12877      6.33610        -0.178051      0.003216      0.196738
Fe	      6.36540      3.97297      6.20389        -0.122343      0.115835      0.294956
Co	      4.15956      2.09626      2.13727         0.173431      0.085837     -0.186235
Co	      2.13042      2.04529      4.16290         0.248846     -0.293158      0.077933
Co	      6.22380      8.20782      6.30092        -0.067803      0.007975      0.073513
Co	      8.23779      8.17753      8.43292         0.016882     -0.035646      0.023674
Ni	      8.38830      4.13378      8.33464         0.041835     -0.018292     -0.005966
Ni	      2.10151      6.16507      4.15241         0.055420      0.053844      0.065964
O	      2.22274      2.09153      2.24105        -0.054852     -0.086688      0.078852
O	      4.13003      3.93278      2.07985         0.156039     -0.039346      0.043459
O	      4.04859      2.03697      3.96466         0.142390      0.107862      0.095152
O	      6.22073      4.24849      4.27651        -0.105712     -0.040223     -0.166838
O	      6.22983      2.11566      6.28445        -0.003703     -0.128873     -0.013630
O	      8.25210      4.12152      6.33557         0.043843      0.009501     -0.190628
O	      2.01118      4.04480      4.29810         0.028485      0.145744      0.068907
O	      4.26070      6.28535      4.30871        -0.327304      0.049513      0.014008
O	      4.09138      4.17798      6.30888        -0.053358      0.118084     -0.056214
O	      6.17101      6.23220      6.15191        -0.006097     -0.005438     -0.020998
O	      6.26319      4.14291      8.44692        -0.113773      0.025723      0.077271
O	      8.34675      6.17392      8.47211        -0.021830      0.157314     -0.161129
O	      2.18787      6.05893      6.19617         0.177001     -0.063902      0.130284
O	      4.28058      8.16090      6.35142         0.043925     -0.084181     -0.210776
O	      4.18546      6.26591      8.23170         0.026631     -0.030031     -0.086829
O	      6.16070      8.23964      8.21726         0.055247     -0.004974     -0.058295
O	      6.29402      6.06702     10.50125        -0.063146     -0.247868     -0.021615
O	      8.44504      8.20335     10.50654         0.229418      0.048620      0.003575
