# total energy = -217.84445967 eV
 
CRYSTAL
PRIMVEC
-0.013734 6.229150 6.151303 
6.247204 -0.016969 6.155375 
4.164117 4.154772 -0.011163 
PRIMCOORD
36 1
Li	      2.09185      6.23517      8.20177         0.093618     -0.001795     -0.018242
Li	      8.34216      4.10848      4.15784         0.023325      0.064557     -0.028245
Li	      6.24558      8.25267     10.30193        -0.065199      0.040085      0.021530
Li	      6.27142      6.23680      4.13340         0.041802     -0.040975     -0.012047
Li	      8.26420      6.22833      6.10978        -0.044880     -0.039732      0.024172
Li	      6.24345      4.26657     10.26544        -0.010165     -0.012053     -0.051633
Li	      8.24881      6.20345     10.24715         0.028387     -0.003424     -0.041285
Li	      2.09420      4.13430      6.05876         0.087997      0.016042      0.052188
Li	      6.25458      6.28579      8.28539         0.021824      0.060969     -0.003799
Ti	      4.32265      8.21432      8.28030         0.414957     -0.146347      0.272001
Ti	      4.20339      6.21982      5.97883         0.019536     -0.149684      0.055309
Fe	      8.29860      4.18663      8.26553        -0.045728     -0.013731     -0.332024
Co	      8.24964      8.26799      8.35867        -0.000300      0.353672     -0.181856
Co	      6.30575      6.21781     12.19301        -0.161256     -0.222938     -0.027207
Co	      8.30265      8.28339     12.18217        -0.095178     -0.096563     -0.911246
Co	      0.01003      2.03821      2.01394        -0.171771      0.058848      0.541790
Co	      6.21097      4.17082      6.13385         0.090191     -0.071531      0.097962
Cu	      4.15489      4.11111      4.11931        -0.072206     -0.055671      0.049459
O	      2.01842      2.12729      1.85837         0.626280     -0.100996      0.628286
O	      4.13072      4.18210      1.81270         0.018089     -0.029052     -0.137686
O	      4.10094      2.12851      3.96935        -0.003496     -0.023712     -0.115704
O	      6.10336      4.10771      4.30373         0.064685     -0.018990     -0.054850
O	      6.21132      1.95140      6.25751         0.418052     -0.013245     -1.300662
O	      8.16878      4.04701      6.15406        -0.166218      0.573800      0.124924
O	      2.17687      4.12251      3.99458         0.012815      0.051413      0.194822
O	      4.21345      6.16263      4.05787         0.033479      0.111078      0.871332
O	      4.22182      4.28932      6.34748        -0.110574     -0.159945      0.355011
O	      6.10190      6.21512      6.19975        -0.088471      0.109868     -0.105846
O	      6.26757      3.95897      8.11064        -0.185714      0.067495     -0.036766
O	      8.47681      6.18121      8.18325        -0.365353      0.063884      0.136214
O	      2.20319      6.30665      6.11170         0.214210     -0.379354      0.106631
O	      4.19520      8.28553      6.19326        -0.338170      0.074065     -0.037218
O	      4.13626      6.36037      8.15718         0.023512      0.040261      0.033379
O	      6.15664      8.32842      8.23308        -0.369346      0.030709      0.027238
O	      6.22468      6.22770     10.38821         0.076226     -0.051009     -0.147810
O	      8.31872      8.30797     10.31840        -0.014956     -0.086000     -0.048124
