# total energy = -136.52449374 eV
 
CRYSTAL
PRIMVEC
2.078081 2.078024 3.940294 
-4.190247 4.190132 0.000012 
-4.159345 -4.159228 3.943523 
PRIMCOORD
24 1
Li	     -3.11736      1.06270      4.92338        -0.001781      0.027587      0.010837
Li	     -1.03346     -1.02050      4.92320         0.027989     -0.003076      0.011890
Li	     -5.21632     -1.00925      4.92374        -0.018552      0.006289      0.006135
Li	     -1.06272      3.10066      4.93670        -0.017757      0.014835     -0.010737
Li	     -7.29430      1.06955      4.92385         0.004002     -0.018266      0.005439
Li	      1.00533      1.03308      4.93647         0.014839     -0.018150     -0.010143
Mn	     -3.11723     -1.02157      6.89470         0.003249      0.003441     -0.001211
Mn	     -5.21565      1.07018      6.89083        -0.031677     -0.030452     -0.018950
Mn	     -3.16906      3.11694      2.96119        -0.011810     -0.012317      0.027176
Ni	     -1.06155      1.03440      2.95188         0.041686      0.040407     -0.027060
Ni	     -3.09528     -0.99944      2.97959        -0.034909     -0.035147      0.026745
Ni	     -5.22057      1.06546      2.95293        -0.000451     -0.000710      0.007788
O	     -3.24942      1.05641      6.90573        -0.060768     -0.085638     -0.001490
O	     -5.22931      3.03647      6.90582        -0.086371     -0.060703     -0.003187
O	     -1.11725      3.21999      2.95281        -0.002155      0.079925     -0.008251
O	     -3.14160      1.13841      2.94879        -0.002947      0.102302      0.005573
O	     -3.06567      5.16866      2.95279         0.078548     -0.002044     -0.008128
O	     -5.14770      3.14458      2.94868         0.101831     -0.003939      0.005893
O	     -3.14474      3.14133      4.83195        -0.005160     -0.004703     -0.134806
O	     -1.04479      1.05111      4.96328         0.002920      0.003944     -0.027542
O	     -5.22158      1.06435      5.02045        -0.005066     -0.005670      0.119416
O	     -3.14361      3.14238      0.98763        -0.002699     -0.003196     -0.003171
O	     -3.13921     -1.04339      4.98299         0.013742      0.012763      0.115850
O	     -1.04774      1.04798      0.89679        -0.006703     -0.007486     -0.088065
