# total energy = -218.44447276 eV
 
CRYSTAL
PRIMVEC
0.029699 6.136534 6.125946 
6.322614 0.025788 6.130372 
4.231135 4.110494 0.000727 
PRIMCOORD
36 1
Li	      8.52859      8.27342     12.23093         0.035323      0.033043      0.017172
Li	      6.32800      4.13264      2.12188         0.044420     -0.014325     -0.013001
Li	      8.34934      4.08219      4.08956        -0.062936      0.003558     -0.029971
Li	      8.38595      4.10748      8.10408        -0.024787      0.011093     -0.062941
Li	      4.29556      4.05602      4.09172         0.040798     -0.021925      0.072704
Li	      6.44928      4.11196      6.11613         0.036522      0.007073     -0.002952
Li	      6.33074      4.14617     10.15565         0.036043      0.067171      0.004339
Li	      4.31494      4.13952      8.23971         0.027507      0.080082     -0.046202
Li	      6.32612      6.02270      8.17445        -0.059317     -0.048055      0.002715
Ti	      8.44417      6.17936     10.08324        -0.122008     -0.034394      0.046995
Ti	      4.26288      6.08142      6.22124        -0.080046     -0.085683      0.690730
Fe	      6.45812      2.18497      8.15307         0.047988     -0.078338     -0.142084
Co	      6.34200      6.07264      4.04527         0.154070     -0.025679     -0.023117
Co	     10.44757      4.12953      6.12398        -0.051390     -0.080610     -0.143764
Co	      6.31024      2.12053      4.07127        -0.024200     -0.174224      0.105411
Co	      4.23060      2.05914      6.12495        -0.030058      0.077513     -0.069788
Co	      6.36939      8.21018      6.26040         0.032340     -0.018879      0.168035
Ni	      4.18503      2.11128      2.08369        -0.067875     -0.087208      0.073978
O	      2.11380      2.07179      2.05979        -0.180674      0.005881      0.085173
O	      4.24474      4.17403      1.82102         0.007032      0.118439     -0.005060
O	      4.34594      2.08684      4.19253         0.076348      0.009718      0.118556
O	      6.32547      4.04724      4.08281        -0.057646     -0.024078     -0.003678
O	      6.14943      2.04680      6.06543        -0.087883      0.049802     -0.188781
O	      8.51341      4.30128      6.09982         0.072566     -0.022722     -0.004567
O	      2.10177      4.17619      4.22404         0.000099      0.087444      0.192013
O	      4.11829      6.14364      4.09188        -0.072592     -0.007341      0.062422
O	      4.16069      4.12640      6.16686         0.059328      0.115936      0.014786
O	      6.37803      6.17952      6.08755         0.027040      0.080306     -0.083248
O	      6.34171      4.03739      8.17462         0.000102      0.090428     -0.005197
O	      8.48536      6.15357      8.18166         0.022697     -0.009868      0.053268
O	      2.28262      6.13795      6.05254         0.058030     -0.011211     -0.067191
O	      4.32089      8.14513      6.13793        -0.085201     -0.041484     -0.117582
O	      4.26798      6.17032      8.06038         0.001756     -0.102080     -0.626042
O	      6.26988      8.19463      8.20004         0.184603      0.036097     -0.167050
O	      6.44490      6.25005     10.34070         0.089119      0.074590      0.096976
O	      8.30264      8.10630     10.23556        -0.047119     -0.060068     -0.003056
