# total energy = -212.33245043 eV
 
CRYSTAL
PRIMVEC
-0.000677 6.375280 6.158848 
6.176534 0.003521 6.154526 
4.127133 4.256593 -0.007109 
PRIMCOORD
36 1
Li	      6.17540      0.08678      6.10711        -0.029956      0.006907      0.021446
Li	      6.16318      4.24687      2.13106        -0.020401      0.009679     -0.034642
Li	      6.17958      2.20642      4.20211        -0.032926     -0.046471      0.003298
Li	      6.24976      6.23185      4.15097        -0.025861     -0.033854      0.034823
Li	      4.30316      4.20652      4.13318         0.017936      0.027278      0.014244
Li	      4.17191      2.12522      6.06411        -0.036047     -0.036213      0.013607
Li	      6.18225      4.15035      6.06974        -0.031904      0.005028      0.045226
Li	     10.23991      8.58211     10.26045        -0.065474     -0.023055      0.003833
Li	      8.13690      6.43653     10.27560        -0.036338      0.046118      0.024790
Ti	      8.19396      4.31257      8.17526         0.538405      0.282367     -0.459028
Ti	      2.11726      4.31866      5.99740         0.323733      0.139822     -0.350140
Fe	      4.15565      2.15324      2.12671        -0.014131     -0.039481     -0.105665
Co	      8.24552      8.50562      8.26311         0.018102     -0.005425     -0.015158
Co	      6.14886      6.40811      8.20292        -0.059616     -0.002532      0.026880
Co	      8.21364      2.14471      6.12996        -0.001591      0.019746     -0.140315
Co	      8.19671      4.28106      4.12751        -0.047129      0.045625      0.009962
Co	      4.13736      6.31869      2.10493         0.009818     -0.012194     -0.015778
Co	      4.12002      6.38134      5.94820        -0.063958     -0.033458      0.018908
O	      2.11524      2.20735      1.94615        -0.065954      0.038684      0.089993
O	      3.98208      4.18129      2.15118        -0.043380      0.076094      0.019316
O	      4.13217      1.96530      4.03995        -0.046178     -0.047553      0.161480
O	      6.34021      4.26775      4.11005         0.099283     -0.032705      0.024114
O	      6.34849      2.06538      6.24314        -0.048872     -0.024466      0.039539
O	      8.27076      4.26732      6.29646        -0.031356      0.047480      0.246253
O	      2.01915      4.22071      4.13836        -0.030421     -0.020353      0.103764
O	      4.14596      6.35515      4.15604        -0.010086     -0.014334      0.091376
O	      4.03410      4.27106      6.17083        -0.134703      0.031489     -0.014918
O	      6.16316      6.55001      6.27656        -0.007197     -0.013624      0.029581
O	      6.21756      4.20658      8.22648         0.006608     -0.012905      0.021255
O	      8.15864      6.29775      8.26529        -0.014256     -0.045854      0.085784
O	      2.07358      6.26043      6.12716        -0.015144     -0.159871     -0.049912
O	      4.08578      8.47944      6.18093        -0.034929     -0.056514      0.008524
O	      4.21527      6.42281      8.03560        -0.050055     -0.059347     -0.018718
O	      6.15033      8.53646      8.09204         0.023806     -0.041617     -0.003753
O	      6.00601      6.37572     10.06618        -0.060730     -0.038701     -0.027557
O	      8.21008      8.67605     10.34186         0.020899      0.024210      0.097588
