# total energy = -208.42449618 eV
 
CRYSTAL
PRIMVEC
-0.007025 6.331204 6.244012 
6.079857 -0.005863 6.242358 
4.072072 4.238831 -0.022467 
PRIMCOORD
36 1
Li	      2.17035      8.36380      6.25453        -0.141338      0.082388     -0.040860
Li	      2.04225      6.29526      8.22297         0.005988     -0.056163      0.040318
Li	      3.97881      2.18162      1.95096         0.019116      0.066575      0.133534
Li	      2.03108      4.21681      2.08706        -0.032249      0.067199     -0.010033
Li	      6.05172      6.44940      4.19812         0.064035      0.018696     -0.089393
Li	      6.09142      4.28671      6.24593        -0.012912     -0.079964      0.059964
Li	      0.08549      4.25356      4.24785         0.002180     -0.024077     -0.103329
Li	      6.04330      8.48873      6.21334         0.123885      0.043662      0.007283
Li	      6.08462      6.35195      8.26488         0.036483     -0.006276      0.089660
Ti	      8.07099      4.20650      4.12775        -0.231303     -0.031932      0.161576
Ti	      0.15314      2.11450      2.06412         0.353259      0.249106     -0.202355
Fe	      4.00022      4.21198      4.11628         0.197368     -0.286321      0.059986
Fe	      8.08395      8.43547      8.27169         0.246683     -0.138181      0.040532
Co	      8.01842      6.33984      6.23646        -1.194494     -0.301039      0.060702
Cu	      4.07372      6.58506      6.25544         0.420828     -0.516788      0.101950
Ni	      4.12031     10.50581      6.26308        -0.074069      0.060558      0.075056
Ni	      1.98897      6.27359      4.19147        -0.038273      0.149253     -0.317358
Ni	      6.08044      2.09878      4.17043        -0.013342      0.031086     -0.035852
O	      4.09285      8.50749      6.26224         0.061070      0.084178     -0.053542
O	      1.93751      2.18568      2.02872        -0.264009     -0.047185     -0.057216
O	      4.09037      4.32470      2.10862         0.035433      0.140887     -0.065052
O	      4.03569      2.06489      4.26976         0.020484     -0.091261     -0.997198
O	      6.14022      4.17470      4.16217         0.046877      0.144536      0.053205
O	      5.89848      2.01960      6.30922         0.763969      0.000427      0.154110
O	      8.12219      4.39941      6.14266        -0.004627     -0.513286     -0.187071
O	      2.10612      4.25631      4.12419        -0.207852     -0.166463      0.040880
O	      4.03727      6.23162      4.01797         0.245639      0.149376      0.369663
O	      4.05908      3.96959      6.22485         0.029077      0.845092     -0.151936
O	      6.16118      6.29285      6.23169        -0.309464      0.135635      0.007063
O	      5.90899      4.07024      8.32835         0.415132     -0.279089     -0.037811
O	      8.10668      6.40454      8.20422         0.190407      0.081120      0.959719
O	      2.12038      6.38268      6.18145        -0.087270     -0.060261      0.162549
O	      4.09208      6.21772      8.44639        -0.028816      0.208381     -0.404485
O	      6.27165      8.44982      8.33693        -0.579699     -0.036200     -0.003022
O	      6.01490      6.37603     10.45764        -0.190619     -0.172123      0.090114
O	      8.11198      8.54369     10.37005         0.132424      0.248453      0.088648
