# total energy = -207.66767675 eV
 
CRYSTAL
PRIMVEC
0.003152 6.461509 6.039393 
6.249641 0.002016 6.040655 
4.173467 4.314738 -0.005615 
PRIMCOORD
36 1
Li	      4.18242      4.18781      0.12438         0.066387     -0.019007      0.016733
Li	      2.22137      8.54834      6.15980        -0.062864     -0.030783     -0.094761
Li	      2.12055      6.52207      7.89448         0.022543     -0.046149      0.018004
Li	      6.26164      2.26513      7.95469         0.082133     -0.011466      0.026842
Li	      8.25169      4.26395      7.97507        -0.010667     -0.051586      0.023119
Li	      4.21236      8.56642      4.08601        -0.029780     -0.008341     -0.023827
Li	      6.15226      8.64827      6.11638        -0.036185      0.044210      0.018601
Li	      4.15108      6.66519      6.14273         0.054155     -0.022431     -0.007416
Li	      6.25296      6.38210      7.95889        -0.118927      0.000829      0.032447
Ti	      4.14270      4.47246      3.95278         0.239639      0.371736     -0.515476
Ti	      2.00722      6.44374      4.08532        -0.137759      0.092717      0.819168
Fe	      8.40448     10.67876     10.04853        -0.040775     -0.151389     -0.368182
Fe	      6.26460      8.57858     10.05778         0.035747      0.180541     -0.153769
Co	      8.32160      6.45440      6.06758        -0.148764     -0.218478      1.568943
Cu	      2.09080      2.20483      3.99300        -0.348455      0.091150     -0.173045
Cu	      6.26625      4.30085      6.08271         0.055839     -0.015290     -0.035159
Ni	      4.16809      8.60910      7.99210         0.192117     -0.111877      0.327217
Ni	      4.17062      4.30523      7.98074        -0.131122      0.358460      0.099814
O	      6.19749      4.31560      7.93113         0.117182     -0.028891      0.669731
O	      4.18150      8.62176      6.12168         0.000700      0.056447     -0.274700
O	      2.22439      2.17539      2.09356        -0.189188      0.030046      0.046778
O	      4.23828      4.25276      2.14713        -0.034757      0.163362      0.380158
O	      4.20349      2.13427      4.03979        -0.022843     -0.006487     -0.776254
O	      6.24347      4.18005      4.16224        -0.063424     -0.078332     -0.549904
O	      6.07326      2.19905      5.98039         1.102689     -0.108585      0.245721
O	      8.33635      4.51604      5.95967        -0.100231     -0.921287      0.080540
O	      2.19225      4.51959      4.00085         0.063248      0.106325     -0.057715
O	      4.13650      6.36195      4.03844        -0.096102     -0.212347     -0.149436
O	      4.14140      4.07505      5.94762        -0.038363      1.106559     -0.331731
O	      6.39804      6.40016      5.91463        -0.817719     -0.183758     -0.369950
O	      8.31036      6.57027      8.03802         0.068108     -0.153137      0.069035
O	      2.08958      6.51330      5.89146        -0.027399      0.001038     -0.318328
O	      4.14934      6.41491      8.15214        -0.018415     -0.008174     -0.038501
O	      6.16254      8.62626      8.12914         0.125359     -0.030862     -0.219379
O	      6.29769      6.50991     10.07910         0.150534     -0.071427     -0.002095
O	      8.29745      8.60353     10.07515         0.097360     -0.113339      0.016777
