# total energy = -211.87741097 eV
 
CRYSTAL
PRIMVEC
0.004395 6.186486 6.233731 
6.198597 -0.035678 6.274136 
4.099563 4.118341 0.008976 
PRIMCOORD
36 1
Li	      6.24135      6.21200     12.47840        -0.033926     -0.013003     -0.006140
Li	      8.16790      1.99778      6.24266         0.009848      0.019330     -0.007940
Li	      2.06806      6.18635      8.20904        -0.001312      0.006007     -0.073878
Li	      6.25118      8.15912     10.53535         0.011448     -0.040815      0.105528
Li	      8.25197      6.10762      6.30504         0.004427     -0.020459      0.026197
Li	      6.24625      4.06016      6.30843         0.033278     -0.065193      0.013224
Li	      6.18636      4.11532     10.43541        -0.032200      0.026346     -0.024029
Li	      4.08757      6.19046      6.23749        -0.031540      0.009020     -0.035092
Li	      6.21473      6.12448      8.34905         0.009932     -0.015604      0.037305
Ti	      4.17938      8.16301      8.20789         0.025121     -0.076394     -0.218710
Ti	      4.23938      4.13446      4.25989         0.232308      0.010598      0.053823
Fe	      8.36358     10.23255     10.58541        -0.221530      0.050292     -0.082134
Fe	      4.17359      4.09689      8.32827        -0.169784      0.104837     -0.066437
Co	      2.06504      2.08672      4.18396         0.061941      0.012655      0.029990
Ni	      6.21484      2.02581      8.26673         0.049509     -0.029568      0.035029
Ni	      8.15370      6.19913     10.48273        -0.012418      0.035144     -0.047909
Ni	      8.19377      4.11622      8.27572        -0.030319      0.040415     -0.096517
Ni	      2.03575      4.11687      6.20753        -0.036005      0.016483     -0.014958
O	      2.12992      2.08361      2.20225         0.102705     -0.127520      0.075969
O	      4.08632      4.01757      2.24392         0.152840     -0.107650      0.061293
O	      4.03548      2.09206      4.13089         0.010400      0.109163     -0.011225
O	      6.13080      4.23032      4.22962        -0.171116      0.051923      0.045203
O	      6.19765      2.00984      6.34050        -0.039199      0.002138     -0.069778
O	      8.22575      4.09431      6.23028         0.008540      0.001157      0.163580
O	      2.13491      4.05046      4.14770        -0.012863     -0.124990     -0.054167
O	      4.18687      6.07946      4.08439         0.048294     -0.081399      0.051431
O	      4.04689      4.12563      6.20339         0.141247      0.009515     -0.135502
O	      6.14604      6.34076      6.08366        -0.036216     -0.191167     -0.091849
O	      6.12956      4.07222      8.29909         0.006117      0.061907      0.004768
O	      8.26205      6.19386      8.44118        -0.046617      0.039025     -0.132185
O	      2.05808      6.01241      6.16605         0.001823      0.177659      0.133636
O	      4.11235      8.20549      6.37055        -0.126947     -0.018364      0.249390
O	      4.11029      6.21690      8.44166        -0.010204      0.145676     -0.066367
O	      6.12827      8.23474      8.28800        -0.083825     -0.015543      0.061655
O	      6.13587      6.16765     10.43557         0.181092      0.007110     -0.004386
O	      8.21016      8.26253     10.33291         0.005154     -0.008731      0.091184
