# total energy = -215.70531873 eV
 
CRYSTAL
PRIMVEC
0.038171 6.157780 6.346676 
6.131386 0.023523 6.361914 
4.097123 4.125146 0.005913 
PRIMCOORD
36 1
Li	      8.24011      8.28173     12.54901        -0.011252      0.016893     -0.001657
Li	      4.16142      8.24066      8.46185        -0.018528     -0.030346     -0.063956
Li	      4.12827      0.06079      4.31779        -0.015199     -0.025833     -0.011821
Li	      4.10448      6.18161      2.18251         0.006130      0.029855      0.039647
Li	      6.15355      6.18468      4.39084        -0.016021      0.023555      0.070117
Li	      8.18716      6.12592      6.30711         0.015429     -0.033184      0.043968
Li	      6.21159      4.21326      6.35614         0.069398      0.001095      0.055761
Li	      4.09132      8.15927      4.32589        -0.006834     -0.056185      0.006271
Li	      4.21295      6.23139      6.30909        -0.001341      0.040993      0.017805
Ti	      2.04345      0.18296      2.11014         0.058232      0.401075     -0.212716
Ti	      4.11044      4.12278      4.43414        -0.137743      0.198721      0.113476
Fe	      2.07555      4.07911      2.07732        -0.007521     -0.015688      0.011390
Fe	      4.17055      4.10997      8.46001         0.080514     -0.060009     -0.141924
Co	      6.16043      8.20210     10.55927        -0.252031      0.275333      0.396922
Co	      6.14188      6.19622      8.43064        -0.132035      0.056497     -0.135130
Cu	      6.13498      6.16599     12.64657        -0.053429      0.181576      0.213022
Ni	      8.18850      6.19305     10.60765         0.145991     -0.057913      0.067909
Ni	      6.09435      8.16595      6.34756         0.013292      0.019195      0.057525
O	      4.12278      8.39756      6.33148        -0.155326     -0.199452     -0.026891
O	      2.03774      2.01702      2.15552         0.035831     -0.431407      0.034974
O	      4.15910      4.16113      2.32126         0.110274     -0.050230      0.205972
O	      4.18129      2.16183      4.24587        -0.242702      0.102650     -0.153855
O	      6.10489      4.05449      4.14787        -0.035472     -0.082673     -0.031743
O	      6.15063      1.89738      6.10755         0.047199     -0.156352      0.896005
O	      8.32160      4.11275      6.49275        -0.168282      0.014352     -0.111365
O	      2.14214      4.08678      4.17863         0.086209     -0.046479     -0.059287
O	      4.09313      6.05591      4.31607         0.079952     -0.193400     -0.013184
O	      4.09494      4.09780      6.36161         0.171653     -0.004648     -0.264013
O	      6.15203      6.20303      6.49910         0.016135     -0.218061      0.159777
O	      6.17548      4.23511      8.45412        -0.052137     -0.063992      0.022641
O	      8.08226      6.16966      8.49723         0.104464     -0.013217     -0.050943
O	      1.91655      6.13023      6.46707         0.182683      0.128895      0.143005
O	      4.05296      6.13288      8.42048        -0.168593      0.088683     -0.002329
O	      6.21359      8.20838      8.52428         0.005231      0.045148     -0.897451
O	      6.16258      6.30419     10.35907        -0.195900     -0.045470     -0.306950
O	      8.11231      8.21287     10.45721         0.441729      0.160022     -0.070975
