# total energy = -216.33443405 eV
 
CRYSTAL
PRIMVEC
-0.045839 6.218917 6.203465 
6.205006 -0.023043 6.180426 
4.127287 4.121486 -0.006079 
PRIMCOORD
36 1
Li	      4.12828      2.03138      2.11717         0.033830     -0.058840      0.024766
Li	      2.14527      2.00006      4.14094         0.061443     -0.042831      0.085760
Li	      4.12962      4.10123      4.12151         0.029564     -0.015355      0.055277
Li	      4.08883      2.10068      6.15960        -0.069251      0.037687     -0.001155
Li	      6.20314      4.08321      6.20403         0.020094     -0.004889     -0.027616
Li	     10.22415      8.28178     10.28354        -0.033420      0.020064     -0.007475
Li	      8.23384      6.23605     10.25523        -0.005298      0.053603     -0.020399
Li	      4.15800      4.11247      8.26585        -0.008175      0.037015     -0.013491
Li	      6.17146      6.14885      8.30483        -0.082464      0.013522     -0.014334
Ti	      1.98710      4.20145      2.22223        -0.006336      0.014148      0.278841
Ti	      4.16571      6.16895      6.09237         0.167828     -0.158573     -0.338597
Fe	      6.10086      8.23243     10.28130         0.055970      0.089904     -0.260987
Fe	      6.17023      8.23789      6.19086        -0.025021      0.111197      0.039576
Co	      8.22846      8.27727     12.33946         0.063194      0.069072     -0.092023
Co	      4.08954      6.19884     10.30445         0.013819      0.010238      0.020882
Cu	      6.20426      4.13854      2.09042         0.040300     -0.062173     -0.011772
Cu	     10.29780      6.18620      8.27248        -0.038086      0.060759      0.030264
Ni	      6.14488      6.20153     12.36178         0.032434     -0.095577     -0.055506
O	      2.01836      2.09876      1.91389        -0.007120      0.278782     -0.071326
O	      4.08381      4.20156      2.03685        -0.221307      0.020400      0.090946
O	      4.18441      1.92576      4.15738        -0.097198     -0.016373      0.008073
O	      6.30903      4.07658      4.03635        -0.010266      0.047018      0.249396
O	      6.37168      2.02596      6.05635         0.036612      0.130013      0.245299
O	      8.29248      3.96474      6.10613        -0.155087     -0.046547      0.021265
O	      2.04657      4.12943      4.09869        -0.014582      0.008893     -0.292742
O	      4.08720      6.19939      4.29155         0.026563      0.011984      0.379121
O	      4.01504      4.24102      6.20250         0.121131      0.163203      0.013889
O	      6.06262      6.28643      6.24537        -0.181053     -0.177958     -0.034853
O	      6.31185      4.04925      8.24177         0.084365      0.026362     -0.023468
O	      8.27377      6.04559      8.21979        -0.046080     -0.122226     -0.018061
O	      2.06114      6.27043      6.26280         0.086243      0.066378     -0.144404
O	      4.07006      8.22554      6.21576        -0.099615     -0.122253     -0.020144
O	      4.02011      6.20087      8.34905         0.267620      0.037853     -0.101320
O	      6.14900      8.36287      8.20636        -0.062492     -0.290726      0.110283
O	      6.04027      6.23135     10.31320         0.017185     -0.080494     -0.122169
O	      8.18787      8.35024     10.40618         0.004655     -0.013277      0.018204
