# total energy = -214.87916555 eV
 
CRYSTAL
PRIMVEC
-0.008710 6.577578 6.232045 
5.994325 0.026320 6.199782 
4.017796 4.385298 -0.005358 
PRIMCOORD
36 1
Li	      7.97898      2.27785      6.21276         0.213155     -0.069357      0.012350
Li	      2.00334      0.31638      2.16074         0.043990      0.029255     -0.113886
Li	      5.98096      2.30855      4.17330         0.019748      0.008130     -0.078491
Li	      0.10827      2.21729      1.98892         0.032032      0.070812      0.180838
Li	      2.04492      4.24955      2.12887        -0.018323     -0.072091      0.048451
Li	      2.00153      2.16484      4.03239        -0.118901      0.011382      0.017443
Li	      6.01937      4.29713      6.15530        -0.023002      0.084438      0.079567
Li	      0.07729      4.33705      4.16069        -0.033254     -0.084553      0.099945
Li	      2.01111      4.40447      6.13869        -0.210164      0.096147      0.025412
Ti	      7.91246      8.70556      8.33526        -0.037317      0.046728      0.205185
Ti	      6.01771      6.40181      8.32676        -0.021437     -0.139987     -0.136029
Fe	      6.01091      0.23931      6.29478         0.583983     -0.611165     -0.153487
Fe	      4.04158      4.43616      4.07463        -0.080153      0.319622      0.062604
Co	      2.00819      6.52331      4.16733         0.142647      0.117773      0.287744
Co	      3.96893      6.78275      6.22053        -0.006753     -0.754215     -0.088942
Cu	      4.00945      2.27673      2.06462         0.165458     -0.021120     -0.690311
Cu	      7.89950      4.40360      4.16779         0.192050     -0.018653     -0.137172
Cu	      3.98250      2.19331      6.11593        -0.228957      0.066365      0.107477
O	      4.01524      8.63732      6.38278        -0.006493      0.941813      0.403821
O	      2.16309      2.27581      2.03647        -0.356857      0.037365     -0.040196
O	      4.08929      4.56868      2.02013        -0.037123      0.112246      0.140072
O	      3.96952      2.41663      3.92873         0.074373      0.047397      0.417724
O	      5.97801      4.44623      4.13951        -0.109137     -0.039429     -0.023937
O	      5.93179      2.16424      6.16289        -0.065442      0.215836     -0.041737
O	      8.06698      4.54062      6.09042        -0.221420      0.194633     -0.012367
O	      2.08829      4.61461      4.14675         0.023627     -0.145183     -0.077686
O	      3.92388      6.53123      4.28018         0.047723     -0.309877     -0.544321
O	      3.97931      4.25579      6.30670         0.073204     -0.379686     -0.140353
O	      5.98768      6.54322      6.38429         0.381272      0.005627      0.003925
O	      5.91574      4.49346      8.30037        -0.001927      0.174981     -0.028672
O	      7.93998      6.66214      8.42086        -0.024219      0.043012     -0.065039
O	      1.98696      6.54716      6.07211        -0.404128      0.052934      0.035287
O	      3.98213      6.30551      8.31843        -0.043039     -0.131377      0.253919
O	      5.96735      8.51313      8.32269         0.144353      0.019056      0.025749
O	      5.98983      6.48471     10.33868        -0.042408      0.029494      0.009872
O	      7.99663      8.54707     10.22265        -0.047161      0.051644     -0.044759
