# total energy = -136.38166816 eV
 
CRYSTAL
PRIMVEC
-0.000465 4.184790 0.000285 
-10.386257 -2.090985 3.953724 
2.076111 -2.092372 3.950194 
PRIMCOORD
24 1
Li	     -7.26949      1.04975      4.94081         0.008393     -0.003437      0.017375
Li	     -5.22505     -1.04543      4.93427         0.013850      0.001358      0.010376
Li	     -3.11734      1.04644      4.94076         0.001769      0.003575     -0.022378
Li	     -1.05952     -1.04513      4.94113        -0.003759     -0.000811     -0.011819
Li	     -9.29902     -1.04110      4.93640        -0.012201      0.000038      0.009518
Li	     -1.04157      3.14164      0.98611        -0.008146     -0.001644     -0.004154
Mn	      1.07493     -1.04317      2.96000        -0.021625     -0.001846     -0.003398
Mn	     -1.07101      1.04827      2.96229         0.027612     -0.007003      0.015055
Mn	     -5.21565      1.04721      2.96019        -0.034406      0.005075     -0.003850
Ni	     -3.12968     -1.04533      2.96526         0.061454      0.002220     -0.012865
Ni	     -7.28039     -1.04394      2.95152        -0.045334     -0.004131     -0.019016
Ni	     -7.22950     -1.04191      6.93144        -0.043566      0.003135      0.032335
O	     -7.35405     -3.13370      6.93243        -0.024194     -0.004603     -0.010415
O	     -7.21293      1.04792      2.95972         0.131338      0.007057     -0.003848
O	     -5.18094     -1.04538      2.95797        -0.030394     -0.003105     -0.001508
O	     -3.09156      1.04707      2.95278        -0.032161      0.002388     -0.001062
O	      0.97028      1.04938      2.96866        -0.074198     -0.000318     -0.002339
O	     -0.97987     -1.04411      2.95281         0.074130      0.006396     -0.006114
O	     -7.27552     -1.04305      4.94810         0.011339      0.002773      0.005578
O	     -5.19377      1.04636      4.86367         0.018178      0.003530     -0.102860
O	     -3.10918     -1.04551      5.02377        -0.011649     -0.003980      0.139110
O	     -1.05446      1.04775      4.83498         0.010471     -0.001960     -0.097527
O	     -9.34268      1.05184      5.02431        -0.017351     -0.008952      0.059131
O	     -1.04818      1.04905      0.98215         0.000450      0.004245      0.014674
