# total energy = -215.83502598 eV
 
CRYSTAL
PRIMVEC
0.006606 6.287641 6.252772 
6.178012 0.030418 6.229032 
4.123512 4.180853 0.015513 
PRIMCOORD
36 1
Li	      8.08310      2.15469      6.21166        -0.046813      0.055379     -0.034803
Li	      6.12386     10.38089      8.36095         0.040756     -0.080877      0.035298
Li	      4.19561      2.19996      2.13193         0.025693     -0.001246      0.017374
Li	      6.17120      2.06999      4.20539         0.026732     -0.044859     -0.050774
Li	      6.16548      2.08990      8.19150         0.022140      0.024158     -0.000011
Li	      4.15842      4.15976      4.06481         0.001105      0.017197     -0.000916
Li	      6.20121      4.07175      6.25577         0.036471      0.016529      0.000293
Li	      8.13692      6.33193     10.40809        -0.041538      0.030577     -0.013775
Li	      6.21681      6.30261      8.45363         0.012888      0.039139      0.074509
Ti	      2.08875      1.99789      4.05330        -0.015884     -0.402802     -0.015177
Ti	      4.07155      6.37403      6.30391        -0.059927      0.024047      0.066798
Fe	      6.21736      8.39249      6.31393         0.117186     -0.045865     -0.067860
Fe	      8.30738      8.33448      8.41547        -0.118005     -0.002457     -0.042527
Co	      8.23802      4.26456      8.32844         0.060411      0.087027     -0.182990
Co	      4.14678      2.12192      6.24432         0.029823     -0.001700     -0.007456
Ni	      6.17773      0.13160      6.22610         0.005287     -0.173872      0.024104
Ni	      4.15838      6.30045     10.36154        -0.057724     -0.010766      0.018191
Ni	      6.17662      4.25214     10.38303        -0.018253     -0.061247      0.006974
O	      2.05253      2.28663      2.16470         0.008335      0.146915      0.118371
O	      3.92506      4.19005      2.05415        -0.072677      0.047201      0.024184
O	      4.04274      2.09390      4.29098        -0.127296      0.074111      0.012500
O	      6.21555      4.32255      4.07521        -0.124910      0.478527     -0.030704
O	      6.04110      2.12730      6.20353        -0.060426      0.086959      0.046341
O	      8.23220      4.39269      6.36987        -0.087683     -0.086329      0.027522
O	      2.05619      4.14962      4.10926         0.195595     -0.083941      0.066759
O	      4.23758      6.27444      4.34570         0.103027     -0.136627      0.156373
O	      4.11983      4.18022      6.30215        -0.028341      0.039662      0.004672
O	      6.19768      6.37196      6.15021        -0.009906      0.037489     -0.079963
O	      6.26553      4.20809      8.34608         0.103759     -0.000676     -0.125935
O	      8.24526      6.24305      8.19734         0.022268     -0.181019      0.016488
O	      2.16468      6.23801      6.25438         0.208372      0.078808      0.014218
O	      4.19013      8.27618      6.30288        -0.105627     -0.139819      0.043979
O	      4.17935      6.19877      8.22013        -0.007551      0.049663     -0.296153
O	      6.28555      8.37481      8.24700        -0.048675     -0.015352      0.042484
O	      6.13610      6.24729     10.47741         0.148598      0.238990      0.022051
O	      8.26626      8.40614     10.33801        -0.137211     -0.102924      0.109559
