# total energy = -217.79548324 eV
 
CRYSTAL
PRIMVEC
-0.030220 6.123542 6.259482 
6.325881 -0.026324 6.255826 
4.203155 4.067292 -0.004785 
PRIMCOORD
36 1
Li	      8.31159      2.12354      6.37670        -0.030008     -0.080162      0.037803
Li	      6.20450      4.02686      2.06480         0.003595      0.011727     -0.024529
Li	      8.55099     10.11638     10.56965        -0.133469     -0.075057      0.053204
Li	      6.29454      1.96802      8.21607        -0.064123      0.035760      0.044004
Li	      8.42456      4.07528      8.18726         0.014828      0.042927      0.088157
Li	      8.45388      5.94318      6.25161        -0.019326      0.045389      0.094746
Li	      6.56871      3.98015      6.32210        -0.016634     -0.013629      0.062081
Li	      6.27450      4.21114     10.35537        -0.027837     -0.085109     -0.061241
Li	      6.34258      6.10021      8.30753         0.073158      0.009043     -0.080306
Ti	      6.26906      5.97726      4.06847         0.114518      0.020280     -0.672282
Ti	      4.33027      4.05099      8.32331         0.223745     -0.365491     -0.037970
Fe	      6.30342      1.96636      4.21061        -0.103333      0.378940     -0.097442
Fe	      4.20945      6.21349      6.30439        -0.172360     -0.090326     -0.012228
Co	      4.17337      4.04799      4.21528         0.011847      0.038639     -0.122287
Co	      8.33314      6.08097     10.37140         0.112113      0.074530      0.220442
Co	      2.11440      4.10494      6.27080         0.019386      0.058363     -0.054448
Cu	     10.43972      4.06504      6.28687         0.126453     -0.038431      0.139126
Cu	      4.19672      2.02745      2.11581        -0.081289     -0.083107      0.015008
O	      1.95781      2.02840      2.25597        -0.028955     -0.041368      0.593236
O	      4.17201      3.95865      2.32158         0.014021      0.077132      0.092065
O	      4.12260      2.09512      4.18595        -0.004032     -0.048536      0.181772
O	      6.16311      4.06800      4.21313         0.012339      0.096411      0.070293
O	      6.32345      1.95488      6.13624        -0.079757      0.052632      0.045952
O	      8.50757      4.01854      6.25942        -0.049504      0.000619     -0.080218
O	      2.22268      4.09188      4.31439        -0.179373      0.321909      0.009341
O	      4.26558      6.01098      4.27354        -0.541607      0.067878     -0.075987
O	      4.05024      4.11103      6.26363        -0.012706      0.002316      0.111721
O	      6.22980      6.24208      6.15593         0.016615     -0.001039     -0.123051
O	      6.15194      4.08839      8.27677        -0.323791     -0.002008      0.039365
O	      8.45403      6.14914      8.49893        -0.117186      0.205000     -0.223106
O	      2.10892      6.06835      6.06825        -0.056763     -0.076776     -0.024302
O	      4.35838      8.19655      6.31139         0.128165      0.078189     -0.180682
O	      4.15266      6.11145      8.25808        -0.000512     -0.095362      0.093185
O	      6.44769      8.15793      8.24126         0.078525      0.084577     -0.092641
O	      6.30745      6.16794     10.30451         1.063573     -0.295376     -0.130835
O	      8.32703      8.07021     10.27853         0.029686     -0.310484      0.102052
