# total energy = -218.79695288 eV
 
CRYSTAL
PRIMVEC
-0.008867 6.293431 6.196255 
6.180893 0.002810 6.184695 
4.105119 4.172875 0.017261 
PRIMCOORD
36 1
Li	      8.24672      8.39201     12.34360        -0.010243      0.073291     -0.007438
Li	      8.24868     10.37546     10.35029         0.014952     -0.042328      0.079018
Li	      8.15222      4.21378      8.29317        -0.027986      0.015460     -0.069815
Li	      6.11470      6.38340      4.22512        -0.051730      0.075512      0.076891
Li	      6.16643      4.19576     10.28694        -0.010362     -0.041949     -0.031426
Li	      6.18720      8.32669      6.21559         0.002967     -0.025370      0.021437
Li	      4.19361      6.23420      6.19126         0.065320     -0.077485     -0.008985
Li	      4.16410      4.20203      8.21803         0.059004     -0.010395     -0.062792
Li	      6.15499      6.20834      8.22079        -0.009465     -0.105835     -0.101798
Ti	      3.99600      8.23351      8.24808        -0.068834     -0.316517     -0.219025
Ti	      2.06940      6.22724      4.10122         0.355584     -0.248363     -0.007903
Fe	      6.22477      8.38360     10.28670        -0.082751      0.143421      0.127845
Fe	      6.18698      4.27943      6.24501         0.238091     -0.040508     -0.104180
Co	     10.22797      4.16993      6.18852         0.423402      0.041301      0.244651
Co	      2.03328      0.01352      2.04252         0.163780      0.033406     -0.001358
Co	      0.02822      2.11246      2.07914        -0.034122      0.273719      0.040201
Ni	      4.10208      4.21325      4.17864        -0.103376      0.073483      0.116765
Ni	      8.18210      6.29569      6.21849        -0.007201     -0.130653      0.058478
O	      2.02448      1.97538      2.10763         0.073870     -0.094760      0.008173
O	      4.21928      4.28338      2.11540        -0.029798     -0.135772     -1.100415
O	      4.15748      2.13666      4.03316         0.033585     -0.064835     -0.178647
O	      6.18242      4.10349      4.06870         0.022581     -0.014297     -0.132617
O	      6.15208      2.05991      6.25914         0.124581     -0.534329     -0.094034
O	      8.30735      4.22055      6.19611         0.088448     -0.080796     -0.041421
O	      2.04675      4.33279      4.15997        -0.047563      0.282023      0.011324
O	      4.04834      6.30640      4.05022        -0.130469      0.008577     -0.062106
O	      4.22183      4.15289      6.17207        -0.199385      0.155422      0.080922
O	      6.18570      6.18928      6.23827        -0.132457      0.210619      0.000707
O	      6.21730      4.02692      8.17251        -0.036166     -0.143075      0.234015
O	      8.37666      6.26513      8.33618         0.002939      0.018856      0.281891
O	      1.90071      6.29458      6.24421        -0.212469      0.043908      0.009241
O	      4.04975      8.50478      6.36130        -0.005132      0.518244      0.139137
O	      4.00682      6.37893      8.22491        -0.198260      0.363506     -0.008116
O	      6.01813      8.52206      8.29616        -0.059341      0.018203     -0.072782
O	      6.25800      6.35475     10.26471        -0.294658     -0.192357      0.799557
O	      8.16064      8.25856     10.32357         0.082662     -0.049326     -0.025398
