# total energy = -220.46616583 eV
 
CRYSTAL
PRIMVEC
0.009863 6.216872 6.202455 
6.299079 0.023506 6.188989 
4.204697 4.140922 0.010178 
PRIMCOORD
36 1
Li	      4.29321      8.24581      8.22239        -0.071415     -0.049394      0.003559
Li	      6.33224      8.28116     10.23160         0.162479     -0.033671      0.007138
Li	      8.35084      4.23139      8.30055         0.008570     -0.106486      0.023131
Li	      2.08081      2.07883      4.10146        -0.006661      0.028117     -0.120476
Li	      6.33609      4.20687     10.29540        -0.118807     -0.002177     -0.020178
Li	      8.36606      6.25990     10.25921         0.002328      0.110056      0.063502
Li	      6.27972      8.24489      6.29956        -0.093120      0.016306     -0.030844
Li	      8.29086      8.27678      8.30996         0.019499      0.108343      0.209987
Li	      6.43309      6.32303      8.35454        -0.019987      0.046813      0.084690
Ti	      4.05066      4.04504      4.12324        -0.587664     -0.006158     -0.483274
Ti	      6.31388      4.31358      6.23172         0.447264     -0.090351      0.150829
Fe	      6.36435      6.18342     12.25851        -0.050661      0.126409      0.255273
Fe	     10.45395      6.28019      8.33231         0.519596     -0.063926      0.037852
Co	      4.16299      6.27111      6.22609        -0.095817      0.188258     -0.121245
Co	      2.12401      8.28684      6.19803        -0.047151     -0.288963     -0.413561
Co	      6.32631     10.29963      8.30114         0.053566      0.344403     -0.115059
Co	      4.26015      6.17954     10.23082         0.201452     -0.049619      0.344450
Cu	      8.39307      6.25881      6.25336        -0.142569     -0.094566     -0.047687
O	      2.01276      1.89936      1.94667        -0.003646     -0.164822      0.061437
O	      4.29896      4.13551      2.14640        -0.042549     -0.022534      0.152719
O	      4.19159      2.09267      4.25426         0.008684      0.346017     -0.091118
O	      6.31535      4.15769      4.27088        -0.085419      0.006007      0.286879
O	      6.46436      2.06143      6.25783        -0.144637      0.082906     -0.034419
O	      8.39955      4.12195      6.19954        -0.045938     -0.237443      0.013903
O	      2.24156      4.09728      4.13050         0.548291     -0.006058      0.061882
O	      4.22419      6.08759      4.11647        -0.015622     -0.196839      0.234724
O	      4.34329      4.15043      6.10429        -0.065883      0.146433      0.189989
O	      6.21939      6.16676      6.28104         0.061207     -0.121783      0.027538
O	      6.36083      4.09480      8.13934        -0.081381      0.179632     -0.226709
O	      8.52906      6.24218      8.17903        -0.343224      0.003906     -0.028973
O	      2.06161      6.30004      6.13087         0.181617      0.411326      0.063027
O	      4.06112      8.36408      6.20317         0.101092     -0.339419      0.067887
O	      4.03911      6.23251      8.26282         0.067915     -0.057426     -0.430800
O	      6.30914      8.46997      8.24875        -0.047793     -0.153991     -0.007811
O	      6.26335      6.26406     10.35479        -0.159047      0.081185     -0.339266
O	      8.42808      8.42633     10.46307        -0.114571     -0.140489      0.171026
