# total energy = -221.30726437 eV
 
CRYSTAL
PRIMVEC
0.010113 6.159553 6.260386 
6.232091 0.010026 6.260480 
4.170245 4.121694 -0.008813 
PRIMCOORD
36 1
Li	      8.34891      2.16624      6.19595        -0.013088      0.023261      0.025401
Li	      4.17004      8.23969      8.30633         0.042756      0.039827     -0.069857
Li	      8.36877     10.23072     10.48344        -0.000623     -0.009582     -0.032526
Li	      6.21074      2.10907      4.20096        -0.002896      0.028135     -0.112565
Li	      8.32591      4.09794      8.29105         0.029484     -0.046372     -0.020499
Li	      4.21082      4.11364      4.24867         0.016392      0.016416     -0.052260
Li	      6.22217      4.08234      6.20643         0.016067     -0.036490      0.072998
Li	      6.22510      8.22904      6.24786        -0.022797      0.032286      0.055712
Li	      4.20010      6.11510      6.25787        -0.018680     -0.039896      0.080761
Ti	      2.16081      6.09298      8.34970         0.131413     -0.410601     -0.005903
Ti	      2.16409      2.08214      4.23694         0.246887     -0.040032      0.060029
Fe	      4.18356      2.08833      6.29590        -0.030853     -0.031032      0.081167
Fe	      2.07842      6.16517      4.21168        -0.014583     -0.219417      0.030876
Co	      4.13538      4.12944      8.31125         0.300461      0.119912      0.133232
Co	     10.36402      4.10930      6.25182        -0.015592     -0.105696      0.130416
Co	      0.04134      2.06130      2.08301        -0.145432     -0.210465      0.237623
Co	      4.16534      8.22781      4.17810        -0.023864      0.012866     -0.119977
Ni	      6.16322      6.19008      8.29363        -0.141268      0.057347     -0.105332
O	      2.03488      2.00671      2.21242        -0.600221      0.079930     -0.069523
O	      4.29980      4.25705      2.09661         0.081078      0.246719     -0.022026
O	      4.01814      2.10586      4.22488        -0.187304      0.035900      0.029365
O	      6.25387      4.22113      4.05237         0.007155      0.130442     -0.012309
O	      6.20151      1.96554      6.32493         0.228053      0.039850      0.787231
O	      8.47193      4.18982      6.23574         0.037487      0.007186     -0.001010
O	      1.97252      4.06800      4.18850        -0.054252     -0.048748     -0.022993
O	      4.16353      6.25682      4.17715         0.080959      0.009157     -0.749179
O	      4.19105      4.02605      6.29211        -0.121581      0.102223      0.526032
O	      6.27618      6.13253      6.19375         0.020398     -0.020402     -0.201858
O	      6.22176      4.01159      8.46961        -0.358684     -0.259837     -0.019422
O	      8.33502      6.10929      8.38263         0.758793      0.069264      0.003437
O	      1.95954      6.17297      6.28029         0.003138      0.021623     -0.069260
O	      4.15197      8.37334      6.09065        -0.007630      0.098854     -0.053949
O	      4.07577      6.24369      8.26899        -0.213132      0.025783     -0.011509
O	      6.21533      8.29822      8.37394         0.080128      0.233361     -0.070086
O	      6.30833      6.05938     10.31449         0.000701     -0.076124      0.102754
O	      8.44914      8.15376     10.39172        -0.108869      0.124354     -0.534991
