# total energy = -222.16224502 eV
 
CRYSTAL
PRIMVEC
0.024750 6.327164 6.386444 
6.141326 0.033570 6.378670 
4.096288 4.214235 0.021333 
PRIMCOORD
36 1
Li	      4.07536      4.27734      0.14389         0.041619      0.100829     -0.136354
Li	      6.11888      2.16032      4.33560         0.026516     -0.074809      0.055945
Li	      2.07296      4.19339      2.11082        -0.271683      0.128621     -0.046756
Li	      6.08765      6.37430      4.29652        -0.091662      0.034703      0.234604
Li	      4.15267      4.20114      4.28578         0.007221      0.055738      0.176557
Li	      4.17418      2.16393      6.32854        -0.175201      0.048801      0.122507
Li	      6.11130      4.21103      6.35766        -0.016394      0.134011      0.166027
Li	      4.12956      8.39199      4.28042         0.029402      0.041118     -0.178716
Li	      4.17012      6.32730      6.34262         0.189874     -0.113247     -0.005435
Ti	      8.09279      4.37422      4.35210         0.117897     -0.224777      0.257498
Ti	      2.11231      6.20068      4.32805        -0.242384     -0.210666     -0.193760
Fe	      8.19029      2.18227      6.36449        -0.173127     -0.030512     -0.162722
Fe	      4.13629      4.21782      8.45596         0.138132     -0.082833      0.038882
Co	      6.11621      8.40156      6.41011         0.434336     -0.540223      0.002999
Co	      6.17763      6.23344      8.43110         0.207887      0.194229      0.293431
Co	      6.10031      4.26144      2.15519         0.177771     -0.324922      0.079802
Co	      4.05105      2.22103      2.17124         0.337170      0.550021     -0.284666
Co	      0.02147      2.08938      2.11306        -0.340613      0.619194      0.013176
O	      2.00710      2.11724      2.03722         0.284281     -0.427409      0.120896
O	      4.10228      4.31456      2.15521         0.592488     -0.827171      0.129758
O	      4.11348      2.01513      4.28630        -0.038607     -0.078934     -0.702955
O	      6.24033      4.23872      4.30485         0.173813     -0.009583     -0.424357
O	      6.22749      2.14631      6.56057        -0.003420     -0.071283      0.012809
O	      8.27235      4.15431      6.23121         0.048604      0.068047     -0.379605
O	      2.04534      4.30952      4.40611         0.102227      0.197672     -0.046909
O	      4.00955      6.33002      4.10843        -0.133271     -0.088579     -0.025508
O	      3.91473      4.23735      6.48889        -0.193981      0.060597     -0.100273
O	      6.16073      6.30603      6.60804        -0.129881      0.367338     -0.842468
O	      6.09729      4.15713      8.47345        -0.044835     -0.781252      0.042899
O	      8.27373      6.39272      8.63836         0.257895     -0.087198      0.100636
O	      2.09442      6.43952      6.22881        -0.032644      0.032885      0.112062
O	      4.19654      8.43576      6.42693        -0.137685      0.025248      0.706760
O	      4.11479      6.27537      8.63792        -0.795670      0.531040      0.123645
O	      6.14248      8.46554      8.37680        -0.328790      0.672040      0.082587
O	      6.21869      6.35445     10.38715         0.015052     -0.025746      0.619297
O	      8.18772      8.44991     10.65199        -0.032339      0.137010      0.037706
