# total energy = -209.91132120 eV
 
CRYSTAL
PRIMVEC
0.013179 6.227446 6.253338 
6.212915 -0.002063 6.268681 
4.143416 4.163247 -0.002834 
PRIMCOORD
36 1
Li	      8.28914      2.12323      6.25842        -0.048844      0.044488      0.010391
Li	      6.13028      2.10972      4.19326         0.053435     -0.012662     -0.041475
Li	      8.23750      4.17232      8.30924        -0.017207     -0.017443      0.040191
Li	      6.32174      6.24683      4.28701        -0.050130      0.020791     -0.015398
Li	      4.14011      4.03713      4.31323        -0.016882      0.024479     -0.010311
Li	      6.17606      4.23298      6.20266        -0.017341      0.015583      0.002022
Li	      6.27665      8.20197      6.27442         0.011752     -0.028544     -0.017873
Li	      4.31598      6.16319      6.25612         0.132771     -0.100622     -0.018784
Li	      6.25138      6.23145      8.20674         0.010219     -0.021354      0.023609
Ti	      6.23611      4.12510      2.22246        -0.014914     -0.056914      0.316507
Ti	      2.05438      6.16420      4.24863        -0.063567     -0.263703     -0.097438
Fe	      6.23639      2.09604      8.35261         0.003064     -0.009133      0.041022
Fe	      4.14038      8.30649      4.22394         0.154226      0.055551     -0.074546
Cu	      4.11922      2.10704      2.07393        -0.018310      0.016735     -0.000326
Ni	      6.18305      0.03641      6.26051        -0.061237     -0.009133     -0.042819
Ni	      4.15120      0.03371      4.16624         0.052409     -0.075149      0.013458
Ni	      4.11992      2.08351      6.22973        -0.023595     -0.044730     -0.009411
Ni	      4.15067      4.12805      8.30735        -0.028058      0.061314     -0.069708
O	      6.40162      6.20263      6.25328        -0.266720     -0.031858     -0.013777
O	      2.00729      1.98500      2.04419         0.107798     -0.045393      0.006754
O	      4.22743      4.18949      2.06772         0.030652     -0.007277      0.143933
O	      4.14782      2.04010      4.07788         0.009217      0.122324      0.016843
O	      6.23876      4.14653      4.05449        -0.116283     -0.025074     -0.320942
O	      6.06155      1.97862      6.35183         0.263770      0.127294     -0.106332
O	      8.40718      4.31326      6.20191        -0.099803     -0.234517      0.108540
O	      2.00735      4.28562      4.18242         0.084599      0.224199      0.019685
O	      4.04020      6.28456      4.19043        -0.046912     -0.084575      0.119145
O	      4.15854      3.96864      6.32337         0.037453      0.255873     -0.112077
O	      6.20834      4.04370      8.45477         0.115840      0.155764     -0.079462
O	      8.36433      6.24703      8.48072        -0.109160     -0.153801      0.101498
O	      1.96053      6.28735      6.18446         0.058791      0.042761      0.018141
O	      4.11248      8.47375      6.23386        -0.040456     -0.061724      0.106760
O	      4.06487      6.25566      8.27784        -0.032619      0.022700     -0.114010
O	      6.19015      8.43595      8.29487        -0.012572      0.113428      0.030018
O	      6.28497      6.19756     10.41046         0.104082      0.060479     -0.108675
O	      8.33928      8.29450     10.38439        -0.145467     -0.080157      0.134846
