# total energy = -210.01705976 eV
 
CRYSTAL
PRIMVEC
0.001277 6.240855 6.172519 
6.338022 -0.012215 6.185821 
4.219345 4.163513 -0.002096 
PRIMCOORD
36 1
Li	      0.15341      6.21652      6.12674        -0.041418      0.004007     -0.087911
Li	      8.38487      8.22402     12.22580         0.014159      0.019968      0.058958
Li	      8.50134     10.32454     10.31422        -0.003242      0.060286      0.089602
Li	      6.49794      8.18008     10.30575        -0.018662     -0.083479      0.070657
Li	      4.24544      6.15389      2.07853         0.029761     -0.039234     -0.008464
Li	      8.43211      4.20349      8.25888         0.027168     -0.033551     -0.000649
Li	      4.18453      4.23819      4.12392         0.005037     -0.001655     -0.010721
Li	      8.39017      6.27155     10.38536        -0.027143     -0.057592     -0.007873
Li	      4.08521      6.23206      6.14473         0.014278      0.007381     -0.061780
Ti	      4.15947      2.17153      1.95785        -0.209163      0.382105     -0.272704
Ti	      4.37350      1.97991      6.17140         0.159221     -0.238909     -0.232113
Fe	      6.26044      6.26666      4.10899         0.263903     -0.023291      0.262071
Fe	      8.46112      8.34692      8.32788         0.014891     -0.092135     -0.230075
Cu	      6.32785      4.15609      6.15406         0.018629      0.023623     -0.002544
Cu	      6.33499      6.22110      8.28087        -0.029625      0.185628     -0.336154
Ni	      2.11179      0.02467      2.03694        -0.171245     -0.109456      0.062263
Ni	      4.19706      8.32305      4.14253         0.037561      0.078260      0.038855
Ni	      2.13084      4.19809      6.18166         0.003370     -0.050052     -0.120190
O	      6.35702      6.13967     10.14262         0.014065      0.054211      0.981738
O	      2.23373      2.07049      2.07942         0.207672      0.070686     -0.194850
O	      4.28296      4.02549      2.07123        -0.058976     -0.229252     -0.005406
O	      4.01312      2.11813      4.16678         0.222193     -0.008923      0.008464
O	      6.28012      4.38266      4.17528        -0.046278     -0.280746     -0.189897
O	      6.23686      2.09327      6.09430        -0.301841     -0.028024      0.074978
O	      8.34954      4.28734      6.17982         0.091871      0.244027      0.043668
O	      2.05209      3.99756      4.17511        -0.013730      0.268233     -0.125394
O	      4.42407      6.29890      4.10398        -0.399066     -0.041859     -0.009725
O	      4.22017      4.08340      6.25599         0.095286      0.017307      0.017128
O	      6.41259      6.29500      6.29391         0.072073     -0.104671     -0.498542
O	      6.26562      4.24026      8.16196        -0.052833     -0.208981      0.061174
O	      8.49892      6.30374      8.11936        -0.251941     -0.070624      0.091742
O	      2.12397      6.15419      6.20925         0.056716      0.215683      0.027562
O	      4.25105      8.32361      6.26366        -0.123301     -0.035817      0.377042
O	      4.15915      6.27004      8.25636         0.348930     -0.005612     -0.039295
O	      6.28106      8.28426      8.28432         0.071587      0.105723      0.013843
O	      8.49239      8.28101     10.22439        -0.019908      0.006733      0.154545
