# total energy = -210.52764117 eV
 
CRYSTAL
PRIMVEC
0.043950 6.327930 6.317698 
6.196254 0.017362 6.344437 
4.096345 4.201731 0.045622 
PRIMCOORD
36 1
Li	      6.25228      6.30418     12.51142        -0.012170     -0.046401     -0.036843
Li	      4.12802      2.10401      2.28446        -0.022784     -0.057153     -0.015265
Li	      4.26256      6.31816     10.46722         0.063102     -0.056647     -0.020117
Li	      4.09865      6.34021      2.27841         0.001026      0.088158      0.055238
Li	      2.05477      2.16508      4.20534        -0.014822     -0.002837     -0.015052
Li	      6.13766      4.23332      6.27694        -0.017299      0.018777      0.045650
Li	      8.26370      6.32731     10.47859         0.032682      0.050368     -0.048438
Li	      8.26333      8.42895      8.56849         0.044157     -0.029347     -0.025725
Li	      6.19133      6.29814      8.51033         0.017417     -0.048158     -0.010763
Ti	      2.20044      6.30517      8.48286         0.340645      0.017563      0.018319
Ti	      8.18292      6.21833      6.36902        -0.316681     -0.097401      0.100505
Fe	      8.15149      2.13727      6.36432         0.243046     -0.045776      0.088547
Fe	      6.17526      4.25657     10.51815        -0.076628      0.018936      0.127499
Cu	      6.23405      8.33682     10.55053         0.086443     -0.168713     -0.173903
Cu	      2.08486      4.21694      2.14084        -0.084015     -0.034281      0.183326
Cu	      4.13001      4.26145      4.24946        -0.038720      0.140325     -0.023390
Ni	      6.16790      8.44433      6.36918        -0.076657      0.011857      0.084194
Ni	      4.17964      6.32928      6.33833         0.079612      0.023679     -0.001085
O	      6.24219      6.09481     10.53765         0.063543      0.609809     -0.011434
O	      2.08425      2.09945      1.98918        -0.049721     -0.101475      0.065124
O	      4.11256      4.22209      2.38618         0.023369      0.007881     -0.265524
O	      4.24247      1.95037      4.38207        -0.158304     -0.135004      0.110957
O	      6.02355      4.35062      4.13547         0.093471     -0.048584     -0.075218
O	      6.16656      2.12133      6.23257        -0.095377     -0.006088      0.022266
O	      8.21811      4.24247      6.47260        -0.006065      0.102847     -0.040781
O	      2.22756      4.24079      4.20370         0.015835     -0.006132      0.025528
O	      4.12767      6.58135      4.32255         0.021775     -0.425705     -0.114940
O	      4.11277      4.19565      6.17340         0.104099     -0.116427      0.038347
O	      6.27202      6.36363      6.36771         0.408942     -0.061164     -0.031421
O	      6.29654      4.20314      8.64596         0.070190      0.041889     -0.388239
O	      8.31152      6.27389      8.30774        -0.010048      0.049131     -0.146411
O	      2.05191      6.37049      6.48728        -0.095558      0.068098      0.178110
O	      4.11409      8.41462      6.20261        -0.167795      0.131300      0.114100
O	      4.06402      6.33311      8.41971        -0.393988     -0.028155      0.151407
O	      6.20555      8.56652      8.47727        -0.028269      0.083570      0.106092
O	      8.21771      8.44097     10.67141        -0.044453      0.051258     -0.070660
