# total energy = -209.84168240 eV
 
CRYSTAL
PRIMVEC
0.020048 6.270610 6.312013 
6.178874 0.017938 6.314185 
4.132438 4.195189 -0.001361 
PRIMCOORD
36 1
Li	      6.21437      6.27928     12.52872        -0.010420      0.032887     -0.082190
Li	      6.19325      4.19049      2.12935         0.003420     -0.030011     -0.032194
Li	      8.22301      4.25404      8.46185        -0.052105      0.025860     -0.035339
Li	      8.18029      6.26828      6.34256        -0.002213     -0.070943      0.043718
Li	      6.23938      4.22169      6.28919         0.063619     -0.047631      0.065614
Li	      6.27086      4.28032     10.50016        -0.081576      0.073502     -0.037948
Li	      2.02353      6.18011      4.23465        -0.095180      0.069290     -0.012107
Li	      2.06745      4.18731      6.21722        -0.060163     -0.007649      0.049531
Li	      6.24820      6.26556      8.44260         0.025266      0.000766      0.056816
Ti	      6.12695      2.15925      8.34523        -0.168067      0.285884     -0.440141
Ti	      4.09863      6.18945      6.37498         0.004038      0.299398      0.022090
Fe	      4.14819      2.22750      2.07548         0.401399     -0.161939     -0.143630
Fe	      2.05719      2.17830      4.27693         0.167016      0.003393     -0.174442
Cu	      8.28244      8.39964     12.61034         0.033206      0.064295      0.049820
Cu	      8.29144     10.43932     10.56300         0.018201     -0.271113      0.039227
Cu	      6.17622      2.09032      4.22061         0.033988     -0.420126      0.224379
Cu	      4.11934      4.22640      4.21289         0.106460     -0.024520     -0.035248
Cu	      8.24420      8.34291      8.41490        -0.186891      0.108606      0.179728
O	      6.20412      8.37484      8.53560        -0.159087      0.068422     -0.450144
O	      6.12228      6.35713     10.51252         0.082253      0.079571     -0.029158
O	      8.15790      8.45497     10.58929         0.471483      0.323286     -0.347042
O	      2.06048      2.10576      2.15506         0.011556     -0.014382      0.435575
O	      4.13329      4.22874      2.18166         0.033835      0.028228      0.098227
O	      4.14611      1.95593      4.13385        -0.775052      0.042663     -0.070945
O	      6.18195      4.16641      4.22167        -0.067618      0.212530      0.000733
O	      6.25841      2.06608      6.42086        -0.165050      0.009322      0.445179
O	      8.26566      4.09780      6.21624        -0.048975      0.085886      0.213898
O	      2.14009      4.12550      4.20094         0.099684      0.012795     -0.017429
O	      4.21205      6.39302      4.19142        -0.016663     -0.098964     -0.024068
O	      4.10007      4.31320      6.22573         0.034435     -0.290495     -0.130733
O	      6.09813      6.30300      6.22859        -0.087939     -0.017086     -0.058320
O	      6.11268      4.05585      8.41778         0.162240     -0.098675     -0.030193
O	      8.37431      6.34048      8.40012         0.007630     -0.158761      0.001196
O	      2.21215      6.37388      6.26130         0.149396     -0.187507      0.053992
O	      4.11749      8.31092      6.43036         0.101870     -0.024571      0.226471
O	      4.15388      6.24188      8.31248        -0.033994      0.097791     -0.054923
