# total energy = -209.65927386 eV
 
CRYSTAL
PRIMVEC
0.047572 6.193860 6.320944 
6.200790 0.039461 6.329321 
4.124699 4.125579 0.036093 
PRIMCOORD
36 1
Li	      0.12965      6.21616      6.29539        -0.030933      0.038770      0.007310
Li	      2.10563      8.17239      6.31097        -0.003100     -0.034107      0.007149
Li	      2.15228      6.18246      8.38021         0.015706      0.006126     -0.003838
Li	      6.18266      2.09443      4.26162        -0.024280      0.017005     -0.029518
Li	      4.15436      4.12821      4.30697         0.028820     -0.004277     -0.025099
Li	      4.16440      2.16316      6.26141         0.035583     -0.011202     -0.017969
Li	      4.17452      8.23184      4.33958        -0.046454     -0.009044      0.046409
Li	      4.10448      6.16147      6.35212         0.027006      0.026250      0.037122
Li	      4.12629      4.18272      8.38345        -0.015397      0.012345      0.016794
Ti	      4.19264      8.33687      8.36522        -0.017207      0.148121     -0.220211
Ti	      8.25753      4.03928      4.38806         0.067224     -0.264214      0.283135
Fe	      6.22322      2.08781      8.40465         0.017132     -0.062878     -0.055620
Fe	      6.23117      6.19985      8.43454         0.095191     -0.061692      0.054181
Ni	      8.28878      4.16639      8.42930         0.035716     -0.009157     -0.117817
Ni	      2.08210      6.21340      4.27148         0.043425      0.088513     -0.049192
Ni	      6.20229      6.22220      4.27667        -0.107695     -0.010240     -0.010739
Ni	      6.14281      4.16470      6.32885        -0.052463     -0.103544      0.005418
Ni	      2.15170      4.16339      6.29642        -0.003034     -0.045832     -0.006302
O	      2.09513      2.07598      2.12532         0.196379     -0.123052     -0.059995
O	      4.13865      4.11022      2.11674         0.119797     -0.231030      0.000277
O	      4.07586      2.01396      4.12559         0.045455     -0.024034     -0.052076
O	      6.27120      4.22409      4.30788         0.106499     -0.074600     -0.048701
O	      6.18158      2.13013      6.56213         0.001343      0.015566     -0.411039
O	      8.23429      4.17269      6.28171         0.055046      0.001749     -0.301397
O	      2.07526      4.08858      4.22685        -0.007824      0.044812     -0.036972
O	      4.18968      6.21929      4.00873        -0.001039      0.002351      0.393132
O	      4.11933      4.16905      6.33263         0.027946      0.002262      0.004689
O	      6.22425      6.24639      6.42601        -0.002176      0.039112     -0.029413
O	      6.24298      4.16676      8.35695        -0.099987      0.074487      0.077081
O	      8.29666      6.19828      8.59326        -0.110280      0.130527     -0.025150
O	      2.13905      6.10831      6.20443        -0.013837      0.061625      0.078132
O	      4.23382      8.24534      6.48496        -0.034607      0.003582      0.255886
O	      4.22026      6.30337      8.55263        -0.106449      0.030247      0.076215
O	      6.14031      8.22731      8.44026        -0.090595      0.089344      0.074374
O	      6.16735      6.23665     10.46439        -0.145102     -0.041129      0.066027
O	      8.26262      8.36306     10.59448        -0.005810      0.277238      0.017719
