# total energy = -216.44866524 eV
 
CRYSTAL
PRIMVEC
0.015448 6.168261 6.421284 
6.208998 0.002104 6.433736 
4.135146 4.116828 0.005710 
PRIMCOORD
36 1
Li	      8.28502      8.23240     12.78318         0.011463      0.011197     -0.092408
Li	      6.18914      4.11881      2.17108         0.043714     -0.028085      0.041183
Li	      4.19337      6.15563     10.72543        -0.069171     -0.004157      0.010142
Li	      2.05276      4.14175      2.20084         0.020807     -0.063669      0.084176
Li	      4.09110      4.15342      4.30633        -0.024922     -0.038569      0.101095
Li	      8.27585      6.14388     10.65551         0.057098     -0.054305      0.091235
Li	      2.04605      4.07626      6.33732         0.057861     -0.058363     -0.066111
Li	      8.33304      8.21032      8.64771        -0.096671      0.039544      0.036132
Li	      6.24522      6.15490      8.63538        -0.090455      0.121214     -0.032563
Ti	      4.14601      2.10913      2.11407         0.250945     -0.315455      0.238276
Ti	      3.95745      6.09728      6.49242        -0.357243     -0.314077     -0.139094
Fe	      6.36623      8.23279     10.65857        -0.157763      0.357549     -0.081783
Fe	      2.07551      2.07605      4.26792         0.037146     -0.154243      0.093516
Fe	      6.25798      4.12620      6.52625         0.122590      0.180008     -0.551793
Co	      8.27362      6.18283      6.57698        -0.075046      0.661501      1.080800
Cu	      6.24554      6.15854     12.80410        -0.105457      0.083747     -0.020260
Cu	      4.13302      6.12453      2.15777         0.416911     -0.074426      0.099106
Ni	      6.18051      4.15340     10.63024         0.096624     -0.072272      0.107751
O	      2.10573      2.01693      2.26666        -0.064946      0.003458     -0.362446
O	      4.13754      4.06197      1.94980        -0.038573      0.229008      0.115004
O	      4.10648      2.10815      4.14000         0.202955      0.006412     -0.036716
O	      6.21291      4.16967      4.39271        -0.046926     -0.325438      0.115182
O	      6.17205      2.16940      6.24406         0.057379     -0.276046      0.109566
O	      8.27182      4.30152      6.40142         0.024422     -0.922065     -0.022483
O	      2.00285      3.97287      4.30105        -0.098368      0.649401     -0.099418
O	      4.22335      6.20467      4.49891        -0.425580     -0.087767      0.018636
O	      4.17380      4.10750      6.45584         0.115891      0.659626      0.066735
O	      6.22969      6.13027      6.39411         0.009163     -0.155294      0.218302
O	      6.24209      4.01332      8.49982        -0.039606     -0.077222      0.228551
O	      8.40378      6.17115      8.49497        -0.206436      0.020848     -0.899252
O	      2.14102      6.11582      6.41922         0.260716      0.017003      0.052774
O	      4.12220      8.09922      6.53711        -0.069627      0.165539      0.158911
O	      4.16364      6.26870      8.40692         0.024745      0.096463     -0.108805
O	      6.08383      8.23902      8.72323        -0.305289     -0.082929     -0.330813
O	      6.23054      6.21803     10.84075         0.074008     -0.125994     -0.183302
O	      8.25880      8.26506     10.68760         0.387642     -0.072142     -0.039824
