# total energy = -216.85825905 eV
 
CRYSTAL
PRIMVEC
0.025531 6.584252 6.192420 
6.139196 0.055968 6.160305 
4.116522 4.392410 0.014984 
PRIMCOORD
36 1
Li	      6.19724     10.93569      8.26475         0.007126     -0.021133      0.013209
Li	      6.14567      2.22128      4.12855         0.022195     -0.012295      0.082805
Li	      5.99801      2.44014      8.20498         0.024919     -0.044688     -0.023898
Li	      8.14030      4.64831      8.21511         0.014978     -0.017971     -0.010496
Li	      8.20034      6.62581      6.31680         0.058654     -0.011344     -0.066109
Li	      6.13628      4.41621      6.28401        -0.017063     -0.029306     -0.031234
Li	      8.19935      6.56467     10.15259        -0.010565     -0.028278      0.093303
Li	      6.21825      8.70880      6.17631         0.047693     -0.042996     -0.016767
Li	      6.28204      6.55407      8.22902        -0.052486     -0.009914     -0.002837
Ti	      8.13542      4.39254      4.20501        -0.072825     -0.200476      0.177196
Ti	      4.13296      6.48196      6.22826         0.144064     -0.136515     -0.047757
Fe	      0.06237      0.11553      0.05659        -0.026070     -0.093312     -0.000184
Fe	      4.33584      8.79991      8.22861        -0.311988     -0.035979      0.111099
Fe	      2.04926      2.29225      4.07744         0.062190     -0.162412     -0.140828
Co	      1.99637      2.17375      0.16252        -0.086141      0.131498     -0.181193
Cu	      4.11821      4.44697      4.01333        -0.054925      0.033671      0.090666
Cu	      6.17699      4.48480     10.24531         0.195467     -0.100177      0.050372
Cu	      8.17176      8.60199      8.26884         0.037154      0.245805     -0.092854
O	      6.00453      4.44354      8.30015        -0.135027     -0.028099     -0.135070
O	      8.19284      6.67998      8.23296        -0.018894     -0.101234      0.056329
O	      2.14495      2.17582      2.01353         0.013354      0.043068      0.093420
O	      4.15306      4.21683      2.06821         0.036324      0.061960     -0.080598
O	      4.07933      1.98728      4.05291         0.076928     -0.079787     -0.016528
O	      6.20572      4.52556      4.10641         0.146860      0.002429     -0.024109
O	      6.17529      2.10601      6.17733         0.094027      0.078104      0.059097
O	      8.23059      4.40762      6.12142        -0.052365      0.039909     -0.025941
O	      2.12336      4.28412      4.05509         0.186252      0.281024     -0.024928
O	      4.16498      6.82507      4.21840        -0.029923     -0.065971     -0.053554
O	      4.09142      4.61869      5.95358        -0.090876      0.098758      0.085960
O	      6.04369      6.62847      6.08139        -0.164689     -0.048439      0.155937
O	      2.12989      6.71100      6.16140         0.062871     -0.060262      0.002821
O	      4.14599      8.76813      6.22327        -0.107768      0.044315      0.030381
O	      4.13675      6.66240      8.18770         0.017659      0.029960     -0.014364
O	      6.21556      8.77714      8.25913         0.347202      0.007781     -0.000274
O	      6.07409      6.49479     10.41981        -0.023324      0.273871     -0.114464
O	      8.22574      9.03815     10.50341        -0.340989     -0.041566      0.001390
