# total energy = -214.76357709 eV
 
CRYSTAL
PRIMVEC
-0.005996 6.294497 6.202916 
6.260313 0.003617 6.193502 
4.176593 4.193182 -0.000707 
PRIMCOORD
36 1
Li	      4.10475      4.13815      0.04442        -0.019773     -0.022297      0.005357
Li	      2.14134      2.16839      0.01889         0.031872      0.030226     -0.013254
Li	      4.15804      8.39860      8.22216         0.021004     -0.014302      0.047533
Li	      2.10046      2.14449      4.16591         0.033519      0.044458     -0.021476
Li	      4.14247      4.19103      4.16367        -0.019587      0.002402     -0.008366
Li	      8.28159      6.28479      6.19554        -0.024503     -0.038597     -0.002900
Li	      6.28442      4.25465      6.23483         0.071614      0.021197     -0.033467
Li	      4.19164      8.35454      4.14259         0.020567     -0.047186     -0.034010
Li	      6.23325      6.25580      8.18916        -0.022038     -0.038600      0.000986
Ti	      6.17445      2.11725      4.25612        -0.260458      0.084082      0.270116
Ti	      2.09004      6.19440      4.11253         0.046347     -0.244363     -0.114734
Fe	      6.21495      4.21991      2.05844        -0.031472      0.074061     -0.021917
Fe	      8.36962      4.18211      4.22223         0.042596     -0.027374     -0.046960
Fe	      6.30736      2.14845      8.18863        -0.056004     -0.050941     -0.070001
Cu	      4.21982      6.29894      6.20208        -0.012229     -0.032680     -0.035765
Ni	      8.36379      4.14849      8.16629         0.022034      0.018469     -0.050065
Ni	      6.24920      8.34669      6.22245         0.023957      0.061997     -0.015436
Ni	      4.19351      4.20972      8.24158         0.077579     -0.073805     -0.007592
O	      6.18414      6.42968      6.18820         0.125077     -0.129475     -0.009723
O	      4.35585      8.27526      6.20593        -0.191700      0.129203     -0.006634
O	      2.02998      2.05253      2.06169         0.087941     -0.096511      0.004122
O	      4.22034      4.29997      2.03533         0.052523     -0.007941      0.051159
O	      4.28941      2.00578      4.12727         0.254084      0.084756      0.017859
O	      6.32722      4.09732      4.10132        -0.054627     -0.102523      0.051583
O	      6.23893      2.12660      6.13201         0.001499     -0.023403     -0.336996
O	      8.37561      4.17309      6.11194         0.011926     -0.002212      0.073376
O	      2.06657      4.32950      4.08466         0.004899      0.306573      0.016046
O	      4.04439      6.31368      4.11509        -0.143918     -0.018697     -0.015724
O	      4.00532      4.27200      6.22869         0.084324     -0.056105     -0.129334
O	      6.27144      4.09953      8.22550         0.001802      0.116951      0.022949
O	      8.40815      6.28597      8.35276        -0.044080      0.002943      0.147612
O	      2.14912      6.19568      6.16926        -0.105542      0.024883     -0.061360
O	      4.10271      6.27340      8.32848         0.031716      0.091385      0.000381
O	      6.28819      8.49623      8.35068        -0.098053     -0.047304      0.192095
O	      6.32243      6.40148     10.31848         0.094235      0.067068      0.011735
O	      8.27246      8.35640     10.33758        -0.057128     -0.086338      0.122808
