# total energy = -214.27714755 eV
 
CRYSTAL
PRIMVEC
-0.013603 6.313945 6.230144 
6.179106 -0.022649 6.239105 
4.115815 4.211766 -0.011450 
PRIMCOORD
36 1
Li	      6.16079     10.47974      8.30514         0.034935     -0.061402     -0.041938
Li	      4.17844      8.40067      8.30980         0.033320     -0.015489     -0.029649
Li	      6.19576      8.41812     10.24783        -0.002958      0.010119     -0.056923
Li	      2.05270      2.08402      4.13774        -0.017354     -0.013303     -0.034292
Li	      8.12971      6.38248      6.27920        -0.011985     -0.019726      0.001668
Li	      6.14383      4.22749      6.26252         0.017340     -0.031582      0.003900
Li	      8.25501      6.32149     10.30228        -0.011336      0.007772      0.062977
Li	      6.21929      8.32844      6.30597        -0.025317      0.000042      0.038195
Li	      8.16778      8.34741      8.29798        -0.009849      0.025805      0.009592
Ti	      6.27248      6.39851     12.41772         0.131339      0.298246     -0.168487
Ti	      4.17232      4.05548      4.22908         0.043408     -0.181057      0.248823
Fe	      4.00922      0.03311      4.07879         0.031477      0.109630      0.053297
Fe	      8.18838      4.19250      8.34972         0.073067     -0.115463     -0.151265
Fe	      4.15203      6.27447      6.23472        -0.253497      0.084948      0.024254
Cu	      8.24824      2.12000      6.22497        -0.174854     -0.027849      0.028209
Cu	      0.00854      4.18607      4.14694         0.041699      0.016871      0.041845
Cu	      6.18364      6.40381      8.27658         0.130294     -0.110829      0.120882
Ni	      4.08749      6.33775      2.11560        -0.057491     -0.000642     -0.031325
O	      6.19372      8.32825      8.27476        -0.000309      0.128844      0.003738
O	      2.00965      2.20160      1.96789         0.057607     -0.021599      0.128725
O	      4.07450      4.21885      2.01990         0.037042     -0.067937      0.050245
O	      4.08981      2.14005      4.18901        -0.008611      0.203387     -0.023515
O	      6.13929      4.17428      4.11468        -0.240855      0.010612      0.040583
O	      6.21738      1.97997      6.30345        -0.196294     -0.264548     -0.051744
O	      8.31596      4.13727      6.21299         0.106210      0.316764     -0.030365
O	      2.13387      4.15193      4.08166         0.122746     -0.011661      0.081983
O	      4.11284      6.11422      4.21185        -0.023121     -0.086234     -0.021614
O	      4.12356      4.23781      6.10984        -0.025146     -0.036359     -0.261308
O	      6.07219      6.29923      6.33043         0.120870     -0.050885     -0.081824
O	      6.18700      4.18256      8.42117        -0.061612      0.091286     -0.113124
O	      8.17916      6.20086      8.29644         0.047145      0.068697      0.014203
O	      2.01160      6.37524      6.23121        -0.086800     -0.220955      0.004537
O	      4.05999      8.44013      6.12572         0.310133      0.019265      0.090779
O	      4.16549      6.32940      8.31562        -0.165260     -0.003845      0.016629
O	      6.09613      6.41234     10.51701         0.030519      0.012294      0.133280
O	      8.27937      8.53677     10.45769         0.003499     -0.063222     -0.100973
