# total energy = -214.17047956 eV
 
CRYSTAL
PRIMVEC
0.001794 6.284662 6.257452 
6.272325 0.014776 6.244342 
4.175735 4.175275 0.015836 
PRIMCOORD
36 1
Li	      4.18608      2.11353      2.12964        -0.001905      0.025382      0.029372
Li	      4.08196      6.21382      2.16214        -0.025240     -0.018591      0.042680
Li	      8.40250      4.30582      8.38479         0.024470      0.069648     -0.009429
Li	      2.12430      2.14006      4.17029         0.006479      0.022984      0.000626
Li	      4.09146      4.20415      4.16399        -0.034499      0.011083      0.002774
Li	      2.12606      6.23120      4.10312         0.031161      0.023100     -0.037922
Li	      2.15890      4.14126      6.24815         0.032895     -0.030100     -0.008913
Li	      8.32022      8.29821      8.32288        -0.027379     -0.029213     -0.008816
Li	      6.37836      6.30303      8.30896         0.099988      0.011943     -0.003702
Ti	      2.14090      2.09258      0.06112         0.142474     -0.071014      0.105788
Ti	      0.14861      4.11297      4.00788         0.260287     -0.195339     -0.245216
Fe	      6.23813      4.16806      2.13464        -0.055788     -0.007050      0.046188
Fe	      6.23397      8.33464     10.36780         0.052335     -0.021516      0.033712
Fe	      6.19356      4.26353      6.33806         0.082285     -0.115978      0.021430
Ni	      0.02737      6.28465      6.27985         0.008220     -0.032421      0.042672
Ni	      4.17616      6.30618     10.38098         0.004873     -0.030987     -0.096735
Ni	      4.19519      6.25572      6.25529         0.021391     -0.001333      0.052161
Ni	      8.32140      6.32007      6.30463         0.003381     -0.004689     -0.044557
O	      8.36092      6.28756      8.17162         0.008469      0.012547      0.216108
O	      2.10311      1.98257      1.96944         0.001768      0.026418     -0.159518
O	      4.37517      4.17507      2.06996        -0.192963      0.012284      0.088905
O	      4.25233      2.05334      4.33908        -0.091740      0.103263     -0.090526
O	      6.30711      4.11476      4.20395        -0.106603      0.029665      0.096133
O	      6.33134      2.13148      6.19170         0.094230      0.100282      0.042609
O	      8.33807      4.11691      6.28725        -0.082258     -0.074679      0.075198
O	      1.96983      4.21280      4.15099        -0.280660     -0.007519     -0.028960
O	      4.16206      6.42090      4.22350         0.033433      0.231720     -0.131109
O	      4.26503      4.18027      6.24884        -0.166080     -0.031604     -0.005034
O	      6.27735      6.19284      6.29309         0.005137      0.153623     -0.006987
O	      6.25970      4.19599      8.37987         0.010569      0.003769      0.193065
O	      2.09032      6.39969      6.28703         0.053228      0.083890     -0.030950
O	      4.07022      8.39654      6.16251        -0.156236     -0.054409     -0.044267
O	      3.95636      6.30410      8.31946         0.121803     -0.003105     -0.020255
O	      6.23317      8.50466      8.42226         0.001316     -0.052065     -0.119150
O	      6.22639      6.27717     10.44322         0.116389     -0.056354     -0.097050
O	      8.34122      8.39151     10.53276         0.004772     -0.083636      0.099677
