# total energy = -226.96375845 eV
 
CRYSTAL
PRIMVEC
0.015897 6.277205 6.280911 
6.284047 0.017467 6.279495 
4.185871 4.180364 0.014975 
PRIMCOORD
36 1
Li	      4.19786      8.26169      8.40643        -0.046088     -0.025151     -0.025620
Li	      8.34498     10.42402     10.40781        -0.056844      0.014665      0.039286
Li	      6.35026      8.42297     10.44035        -0.026247      0.002208     -0.010278
Li	      6.28375      6.28663      4.25992         0.009221     -0.045581      0.093168
Li	      6.27627      4.26489      6.33125         0.063962      0.084635      0.002509
Li	     10.42813      8.32087     10.43758         0.012990     -0.006135      0.014301
Li	      6.25138      8.30723      6.30056         0.021982     -0.041654     -0.002539
Li	      4.33710      6.29666      6.32748         0.037906     -0.009033     -0.029174
Li	      8.41271      8.42137      8.48406        -0.038243      0.006623      0.003784
Ti	      6.28718      6.21295     12.38471        -0.182234     -0.245959     -0.184706
Ti	      4.19568      4.12554      4.31983         0.105465     -0.057984      0.493817
Mn	      6.28240      2.16168      8.41207         0.001391     -0.020044     -0.037393
V	      6.43273     10.34709      8.42793        -0.014718      0.045311      0.148697
Cr	      8.39749      8.37430     12.51340        -0.007543      0.124868      0.033124
Co	      8.26524      6.36321      6.32254         0.038779      0.121884     -0.128593
Cu	      2.09436      4.16000      2.14909         0.071078     -0.016725     -0.038052
Ni	      8.40580      6.33579     10.44127        -0.028622     -0.011931     -0.142605
Ni	      6.21545      6.29197      8.37614         0.008326      0.011607      0.184173
O	      2.13044      1.84618      1.97612        -0.009753     -0.125409     -0.033993
O	      4.20481      4.29913      2.09404         0.027998     -0.051571      0.000833
O	      4.15509      2.20687      4.34191         0.034785      0.140377     -0.073880
O	      6.18395      4.19935      4.06884        -0.086491     -0.024323      0.023170
O	      6.27547      2.02037      6.39388         0.019916     -0.039157     -0.060919
O	      8.49774      4.15291      6.37876         0.069602     -0.186910     -0.088398
O	      2.23993      4.26145      4.10284         0.008173     -0.128889      0.143288
O	      4.17910      6.19867      4.09667         0.129368     -0.004337      0.015634
O	      4.24214      4.21085      6.16748         0.016790      0.139314     -0.433557
O	      6.40066      6.28641      6.36979        -0.094089      0.055242     -0.255250
O	      6.40214      4.08870      8.39884        -0.079830      0.033376      0.013746
O	      8.27404      6.42573      8.23718         0.119414      0.050221      0.208755
O	      1.99759      6.32704      6.29483        -0.030892     -0.060847      0.040287
O	      4.13097      8.49347      6.27913         0.048995      0.208223     -0.056707
O	      4.15125      6.26161      8.38006         0.045866     -0.013248     -0.007712
O	      6.22414      8.54780      8.36304        -0.067173     -0.051265     -0.062912
O	      6.30694      6.32088     10.53444        -0.108379     -0.016141      0.247552
O	      8.36992      8.34184     10.57576        -0.014862      0.143740     -0.033836
