# total energy = -226.85400856 eV
 
CRYSTAL
PRIMVEC
0.053259 6.323756 6.267781 
6.259889 0.087687 6.233238 
4.223221 4.242631 0.008401 
PRIMCOORD
36 1
Li	      2.15884      2.12756      0.19131        -0.028328      0.018340     -0.165884
Li	      2.08474      0.23147      2.05044        -0.007606     -0.070430     -0.013725
Li	      3.93608      2.20282      2.04955         0.056068      0.032601     -0.014500
Li	      2.10825      4.07902      2.06998        -0.034007      0.174732     -0.026320
Li	      2.04559      2.16293      4.03016        -0.034570      0.021679      0.110850
Li	      6.28506      4.33740      6.33679         0.004769     -0.002103     -0.079376
Li	      0.09724      4.16791      4.08298         0.020679     -0.002333      0.075216
Li	      4.24266      6.36462      6.38734         0.000510     -0.021654      0.078405
Li	      6.28052      6.19642      8.32877         0.027967      0.007025      0.024124
Ti	      2.31084      6.29205      4.19588         0.321617     -0.001027     -0.012858
Ti	      6.28996      8.37230      6.37344        -0.110561     -0.279039      0.023671
Mn	      4.20751      6.40118     10.36006        -0.011202      0.000340      0.012426
V	      6.30265      8.54700     10.32878        -0.000331     -0.041831      0.004689
Cr	      4.21349      4.25766      0.03798        -0.027292      0.017107     -0.101398
Co	      8.47330      8.49894      8.37649         0.033255      0.067498     -0.024299
Cu	      0.11534      2.17445      2.06742        -0.104496      0.050353     -0.044160
Cu	      8.37742      6.40561      6.27813        -0.040620     -0.053266      0.001897
Ni	      4.25742      4.26946      4.06482         0.034144     -0.034076      0.054633
O	      2.04529      2.17416      2.08388         0.027606      0.033776     -0.032200
O	      4.19745      4.43178      2.01213        -0.037353     -0.153221      0.013057
O	      4.34817      2.22142      3.93337        -0.039556     -0.073222     -0.115301
O	      6.32863      4.14327      4.16480         0.125362      0.078624     -0.053382
O	      6.23492      2.10258      5.94555         0.112971     -0.007842     -0.078555
O	      8.45343      4.42069      6.06352         0.001900     -0.112988     -0.059057
O	      2.17970      4.34434      4.31276        -0.122203      0.082279      0.075349
O	      4.13824      6.30758      4.38692        -0.239286      0.118954      0.104379
O	      4.12783      4.17424      6.39504         0.009452      0.158983      0.075550
O	      6.36765      6.51620      6.25843        -0.169794      0.176307      0.065298
O	      6.16700      4.21498      8.33328        -0.044419      0.008656      0.013093
O	      8.46106      6.52587      8.50566        -0.041136      0.001410      0.245057
O	      2.05734      6.27016      6.19729         0.020595     -0.005536     -0.028388
O	      4.39498      8.55440      6.35509         0.139980      0.019985      0.026049
O	      4.23720      6.19060      8.45706         0.015271     -0.054933     -0.012499
O	      6.48547      8.47450      8.37504         0.084261     -0.056102     -0.142921
O	      6.33132      6.47045     10.45169         0.000296     -0.019775      0.021860
O	      8.36750      8.43921     10.35603         0.056056     -0.079272     -0.020779
