# total energy = -90.89467524 eV
 
CRYSTAL
PRIMVEC
0.000195 4.194852 -0.000073 
-6.240045 2.097127 3.957808 
2.075153 -2.097391 3.950415 
PRIMCOORD
16 1
Li	     -3.12407      1.04969      4.94569        -0.002577      0.002102      0.000585
Li	     -1.09456      3.14688      4.94742         0.004012      0.001381     -0.016006
Li	     -5.15361      3.14835      4.94374        -0.000223     -0.002563      0.015469
Li	     -1.04168      3.14819      0.99171        -0.002622      0.000107     -0.001088
Mn	      1.07010     -1.04680      2.96183        -0.018522     -0.001900      0.008225
Mn	     -1.07826      1.05015      2.97141         0.020800      0.000661     -0.007174
Ni	     -3.15596      3.14735      2.95807         0.031257     -0.000027     -0.030205
Ni	     -3.09244      3.14773      6.93317        -0.027319     -0.000785      0.029696
O	     -3.21046      1.05019      6.94037        -0.031269     -0.001901     -0.014350
O	     -3.03749      1.04974      2.95067         0.028245      0.004496      0.016437
O	      0.95316      1.05047      2.97599        -0.051958      0.006610     -0.003447
O	     -0.96115      3.14764      2.95718         0.051052     -0.004197      0.003263
O	     -3.12392      3.14769      4.94558        -0.001382     -0.000530     -0.001206
O	     -1.05769      1.05000      4.86554        -0.001199      0.002436     -0.091792
O	     -5.19083      5.24566      5.02541         0.001661     -0.006011      0.091595
O	     -1.04186      1.05052      0.99125         0.000042      0.000120     -0.000001
