# total energy = -225.31988112 eV
 
CRYSTAL
PRIMVEC
-0.057272 6.291142 6.037725 
6.631980 -0.011122 5.993034 
4.438506 4.180791 -0.025838 
PRIMCOORD
36 1
Li	      2.48337      6.20273      8.04522        -0.013032     -0.160889      0.034123
Li	      4.42449      8.20064      8.02057         0.165336      0.091795      0.030817
Li	      6.80773      8.29209      9.93392        -0.078817      0.046745     -0.113394
Li	      6.58324      2.14624      7.99984        -0.038145     -0.005814      0.046551
Li	     10.84585      8.43039     10.02347         0.065937     -0.042265     -0.076590
Li	      8.67603      6.40172     10.00286         0.028672     -0.070077     -0.023786
Li	      4.33598      6.35902      6.11997         0.060690     -0.040891     -0.059166
Li	      8.73858      8.50240      8.09430        -0.124322     -0.084686     -0.148557
Li	      6.41090      6.30525      8.11131         0.033973      0.155811     -0.049250
Ti	      2.04702      4.14626      2.11224        -0.191365      0.008751      0.277727
Ti	      4.49905      4.31196      3.85415         0.193406      0.260813     -0.014712
Mn	      0.05075      6.32204      6.00853         0.126071     -0.000868      0.168385
V	      8.79483      6.28996      6.00050        -0.228019      0.047262      0.093436
Cr	      6.56337      4.13793      5.97863        -0.019147      0.078847     -0.020021
Co	      6.51911      8.47997      6.15243         0.282625      0.050686     -1.076251
Cu	      2.30562      8.24187      5.99445         0.214901      0.041186      0.146178
Cu	      4.46458      6.18774      9.96149         0.036966      0.155070     -0.062792
Cu	      2.18218      2.05514      3.96472        -0.105634      0.048270     -0.183577
O	      4.41813      6.26385      8.09027         0.025688     -0.016445     -0.081597
O	      8.85091      8.39728     10.10352        -0.013938      0.072190     -0.101807
O	      2.19854      2.25873      1.91490         0.043083     -0.177415      0.027364
O	      4.21637      4.21339      1.96289        -0.069056      0.017327      0.081396
O	      4.19342      2.11974      4.09743         0.040918     -0.081976     -0.213206
O	      6.35714      3.99143      3.98368        -0.216394     -0.169067     -0.041635
O	      6.32499      2.08445      5.99464         0.008858     -0.174214     -0.030653
O	      8.62523      4.22549      5.96585         0.058253      0.017338      0.012552
O	      2.40358      4.31856      3.97169        -0.059136      0.148972     -0.067465
O	      4.59782      6.15060      3.98853        -0.146283     -0.107253      0.010088
O	      4.48763      4.07488      5.93157         0.164123      0.027567      0.030578
O	      6.73034      6.19050      5.92028         0.021772     -0.129970      0.179049
O	      6.79913      4.16082      7.97834         0.119207      0.049789      0.055078
O	      8.79121      6.14965      7.82384         0.012568     -0.061187      0.197599
O	      2.19420      6.28786      6.06378         0.006056      0.122842      0.123478
O	      4.57208      8.53138      5.99271        -0.235598     -0.144215      0.336098
O	      6.69650      8.32199      7.89469        -0.206514      0.000683      0.562921
O	      6.65687      6.32370     10.15745         0.036296      0.025290     -0.048959
