# total energy = -227.65159061 eV
 
CRYSTAL
PRIMVEC
0.026769 6.282388 6.373298 
6.193037 0.038725 6.361553 
4.126565 4.178303 0.028273 
PRIMCOORD
36 1
Li	      0.22416      6.26971      6.34589        -0.037594      0.002341      0.027986
Li	      2.10940      8.22900      6.40058         0.011361      0.094807      0.010751
Li	      2.10869      6.32546      8.27723        -0.039195      0.000386     -0.080005
Li	      6.19765      2.10900      4.28406        -0.031543     -0.002635      0.007175
Li	      2.06693      2.17228      4.29164         0.001962     -0.010573      0.024928
Li	      8.19019      6.30375      6.41290        -0.057251      0.042283      0.021842
Li	      4.22775      8.38173      4.39787         0.025001      0.000525      0.046756
Li	      2.02859      4.30953      6.25996         0.049328     -0.016028     -0.042306
Li	      6.25118      6.31029      8.45087        -0.035362      0.016070     -0.056854
Ti	      4.24661      8.41196      8.42181         0.154442      0.005232     -0.328279
Ti	      4.26667      6.29201     10.69437         0.194487      0.035634      0.071919
Mn	      6.18528      4.24060      6.37240        -0.103201      0.080818     -0.186474
V	      0.08185      2.07353      2.13398         0.059276     -0.107821      0.047970
Cr	      8.18964      8.40433      8.51712        -0.012033      0.019065     -0.062014
Co	      4.10038      4.11606      4.28619         0.042345      0.071729      0.019724
Ni	      8.24614      4.25315      8.53196         0.020643      0.039148     -0.058988
Ni	      8.20953      6.31645     10.67783        -0.044510      0.038707     -0.038059
Ni	      4.11344      6.30503      6.32282         0.151681     -0.006274     -0.003092
O	      2.08202      2.14215      2.13633        -0.128432     -0.107678     -0.041842
O	      4.13625      4.16658      2.11853         0.056987      0.009263     -0.077812
O	      4.12823      1.99630      4.11633         0.033991     -0.181412     -0.029439
O	      6.19487      4.14081      4.48489         0.071112      0.048756      0.246447
O	      6.18592      2.22418      6.60993         0.003035      0.043475      0.185860
O	      8.11966      4.23743      6.31328        -0.078962     -0.036811     -0.175348
O	      2.10609      4.22858      4.18748         0.007905     -0.072540      0.049122
O	      4.13455      6.27453      4.07329         0.122783     -0.030704     -0.281197
O	      4.22949      4.21155      6.44538         0.127893     -0.116585      0.170974
O	      6.14280      6.11933      6.39656         0.076685     -0.263451      0.020179
O	      6.14528      4.15575      8.38200        -0.105403     -0.118750     -0.039480
O	      8.32646      6.37966      8.56244         0.102550      0.100332     -0.077172
O	      2.15001      6.29822      6.29948        -0.138824      0.018659      0.071171
O	      4.15479      8.33236      6.55804         0.014362      0.145677      0.362370
O	      4.10770      6.32219      8.60990         0.045550      0.004184      0.127672
O	      6.15420      8.38760      8.49248        -0.160342      0.002456      0.054774
O	      6.10605      6.30595     10.70415        -0.403993      0.026164     -0.008081
O	      8.25690      8.50105     10.50891         0.003264      0.225551      0.018820
