# total energy = -227.10862401 eV
 
CRYSTAL
PRIMVEC
0.030199 6.319188 6.086424 
6.329772 0.011872 6.105110 
4.233622 4.238829 -0.005943 
PRIMCOORD
36 1
Li	      4.29326     10.38594      6.14413         0.019482      0.102726      0.001824
Li	      2.31205      8.41678      6.13955        -0.116598     -0.010531      0.009522
Li	      4.21193      8.46970      7.95358         0.000816     -0.065247      0.119728
Li	      6.39398      2.13851      7.95267        -0.045111     -0.055746     -0.023121
Li	      4.35010      2.14965      6.13338        -0.208941      0.008882      0.076596
Li	      6.31160      4.10643      6.13312        -0.032598      0.181700      0.015131
Li	      4.27483      8.47919      4.20961         0.070762      0.059101     -0.132157
Li	      6.11933      8.45702      6.16418         0.176395     -0.158408      0.018771
Li	      4.24307      6.57229      6.11937         0.217865     -0.164875      0.077664
Ti	      4.23043      4.24940      4.14860        -0.123653      0.160548      0.936912
Ti	      2.22576      6.42807      4.17065         0.106748     -0.127089      0.130408
Mn	      6.35402      2.11646      4.12967        -0.166172     -0.129756      0.029051
V	      8.48948      4.29859      4.14947        -0.028104     -0.123137     -0.221258
Cr	      8.44208      4.19858      8.06323        -0.211296      0.251126      0.031320
Co	      6.37042      6.31739      7.89507         0.022315     -0.103211      1.400226
Co	      2.03322      0.04983      1.94270         0.182505     -0.049032      0.050275
Cu	      6.30931      6.39973      4.13541         0.059657     -0.120674      0.421058
Ni	      4.30053      4.18303      8.03350         0.064072     -0.021779     -0.218326
O	      4.23909      8.45398      6.08675        -0.065501      0.071113     -0.046035
O	      2.06658      2.16872      2.16899         0.012022     -0.035819     -0.338973
O	      4.17615      4.20387      2.14333         0.082935     -0.035021     -0.064858
O	      4.16765      2.05663      4.09298         0.356346      0.164636     -0.095021
O	      6.32288      4.12928      4.05661         0.044192     -0.157447      0.032313
O	      6.33449      2.10652      5.97448         0.057448     -0.064601     -0.230279
O	      8.44633      4.20651      5.96325         0.055713     -0.043921     -0.056379
O	      2.23592      4.38959      3.97201         0.089013      0.025888     -0.042381
O	      4.14635      6.21108      4.06808        -0.209284     -0.079111      0.001323
O	      4.23967      4.20080      5.99793         0.011729     -0.035412     -0.815487
O	      6.32129      6.37060      6.10587        -0.237560      0.103975     -0.963026
O	      6.41944      4.31418      8.10187         0.209617      0.182179     -0.146297
O	      8.40621      6.28786      8.17277         0.449584     -0.126479      0.145287
O	      2.11675      6.33255      5.97925        -0.006156      0.060257     -0.443168
O	      4.25048      6.25389      8.32697        -0.477961      0.135922      0.253110
O	      6.46141      8.43973      8.21781        -0.199581      0.088127     -0.010879
O	      6.31674      6.42262     10.07944         0.055948      0.055594     -0.073412
O	      8.53888      8.40054     10.10629        -0.216646      0.055523      0.170538
