# total energy = -228.26785568 eV
 
CRYSTAL
PRIMVEC
0.022661 6.410612 6.239982 
6.047485 0.028540 6.233869 
4.058976 4.297244 -0.008575 
PRIMCOORD
36 1
Li	      5.97559      0.14154      6.20229        -0.022083      0.004226      0.023463
Li	      4.03177      0.09025      4.20222         0.022058     -0.007099      0.007307
Li	      6.03335      2.15920      8.22150        -0.007045      0.009540      0.036204
Li	      6.13207      6.24951      4.17305        -0.078762     -0.085100     -0.000748
Li	      4.11232      4.22619      4.15700         0.002916      0.020517      0.044025
Li	      4.14661      2.13589      6.11917        -0.005137      0.028314      0.066348
Li	      6.10171      4.15625      6.12428        -0.060388     -0.028122     -0.048154
Li	      6.02809      4.36371     10.40691         0.025323      0.026408      0.039488
Li	      6.04132      6.37845      8.37101        -0.043953     -0.018266     -0.020573
Ti	      8.01643      6.56453     10.30176        -0.005111     -0.050104      0.026490
Ti	      6.09337      8.40309      6.14796         0.242397     -0.166914      0.183342
Mn	      4.06390      6.40191      6.21232         0.047564     -0.105713     -0.025066
V	      8.04683      4.28362      8.27964         0.169741     -0.111937     -0.003803
Cr	      6.01091      4.34976      2.09246        -0.160585      0.046851     -0.305288
Co	      8.05450      2.22249      6.26967        -0.116201      0.006984     -0.254368
Co	      4.14173      4.28635      8.29801         0.477628      0.030661      0.284034
Cu	      4.07220      2.13586      2.17767         0.109670      0.089925     -0.096785
Cu	      5.98217      2.23693      4.22813        -0.017014     -0.069644      0.010943
O	      1.95089      2.14894      1.95330        -0.016175     -0.124628      0.284687
O	      3.91070      4.28890      2.13336         0.122368      0.209700     -0.025355
O	      4.07193      2.12031      4.08152        -0.046615      0.013154      0.177050
O	      6.07642      4.25594      3.99477         0.029547      0.265310      0.336890
O	      6.19085      2.17557      6.28653         0.012095     -0.069086      0.075338
O	      8.07544      4.14337      6.37986        -0.030455      0.008970     -0.168839
O	      2.01131      4.45031      4.26085        -0.002291      0.050938     -0.030714
O	      3.96206      6.46225      4.33472        -0.043787      0.032671     -0.165399
O	      3.97512      4.26742      6.31102        -0.130009     -0.161038     -0.719626
O	      6.06537      6.56138      6.20954        -0.010658      0.198655     -0.022654
O	      6.20657      4.30761      8.38344        -0.032150      0.012691      0.062527
O	      8.11439      6.32809      8.41549        -0.093446      0.096122      0.076033
O	      2.05163      6.54664      6.22774         0.010934     -0.000308     -0.021593
O	      4.11241      8.60387      6.35059        -0.012789      0.158699     -0.065316
O	      3.98879      6.41873      8.15408         0.103103     -0.130418      0.120079
O	      6.22239      8.75016      8.10752        -0.614725      0.056206     -0.178369
O	      6.16144      6.51273     10.38796         0.032905     -0.123347      0.022807
O	      8.07761      8.53530     10.41216         0.141131     -0.114818      0.275594
