# total energy = -229.83330375 eV
 
CRYSTAL
PRIMVEC
-0.035386 6.218638 6.252351 
6.273976 -0.021799 6.238498 
4.183839 4.137763 -0.015967 
PRIMCOORD
36 1
Li	      0.00082      6.24212      6.25471        -0.014525     -0.004021      0.000624
Li	      8.29001      8.21183     12.45369        -0.017055      0.005616     -0.047072
Li	      2.12897      6.20063      8.39115         0.006144      0.025361      0.032230
Li	      4.14311      6.14033     10.29258         0.015979      0.013758      0.016843
Li	      6.32908      8.24417     10.32619         0.018977     -0.051122     -0.025494
Li	      6.22523      6.20445      4.13011         0.004067      0.037539      0.005705
Li	      4.20699      4.16217      4.10346        -0.041897     -0.009775      0.025773
Li	      8.33414      6.24918     10.42137         0.000108     -0.012039      0.031092
Li	      6.15015      6.25912      8.34596        -0.030639     -0.050953      0.012284
Ti	      4.17859      1.96440      6.06176         0.063925     -0.208961     -0.434072
Ti	      2.05688      4.29235      6.29297        -0.188709      0.328340     -0.084015
Mn	      2.11626      4.13202      2.13401         0.005557     -0.007092     -0.016739
V	     10.35992      8.36665     10.42898         0.230089     -0.015296      0.073326
Cr	      4.21470      6.16952      2.11141         0.048932      0.000711      0.001661
Co	      6.26916      4.14207      6.01472         0.056615     -0.060503     -0.211299
Co	      8.28661      8.29684      8.36393         0.017386      0.221281      0.065486
Ni	      4.15142      2.01374      2.16948        -0.016572      0.055268     -0.002828
Ni	      4.18320      6.21342      6.25478         0.027826     -0.011548     -0.110086
O	      2.06575      2.18058      2.08186        -0.159772      0.001745      0.020283
O	      4.05991      4.15754      2.11454         0.045041      0.099751     -0.035493
O	      4.20840      2.06322      4.23514        -0.031880     -0.041943      0.428488
O	      6.22272      4.12229      4.25864         0.041676      0.005869      0.121633
O	      6.15605      2.10159      6.32324        -0.069316      0.027376     -0.003278
O	      8.30062      4.21955      6.18915        -0.040920      0.171865     -0.053010
O	      1.97840      4.13247      4.33342         0.081474      0.031780      0.143344
O	      4.17787      6.35918      4.12921         0.011876     -0.086917     -0.044337
O	      4.11923      4.08357      6.31256         0.047720     -0.210709     -0.327309
O	      6.36315      6.20656      6.25822         0.107780     -0.048077     -0.016148
O	      6.36675      4.04776      8.36639        -0.074792      0.012430     -0.039341
O	      8.46010      6.11585      8.24783        -0.059630     -0.101919     -0.022043
O	      2.09182      6.13167      6.26099        -0.075635     -0.345412      0.041479
O	      4.23389      8.26049      6.19890         0.091516      0.124017      0.021102
O	      4.15251      6.19707      8.25967        -0.079241     -0.014451      0.144954
O	      6.16450      8.25671      8.20881         0.129375      0.051448     -0.123469
O	      6.26172      5.99649     10.39727         0.021247      0.218250     -0.021199
O	      8.43244      8.25363     10.33344        -0.172726     -0.151667      0.430926
