# total energy = -231.03745119 eV
 
CRYSTAL
PRIMVEC
-0.008650 6.275915 6.142674 
6.470584 -0.012514 6.146618 
4.311415 4.184446 -0.006624 
PRIMCOORD
36 1
Li	      6.52798      6.39349     12.21517         0.017373     -0.015777      0.004492
Li	      8.47674      8.28677     12.18338         0.001882     -0.023236      0.046928
Li	      8.67396     10.38683     10.32002         0.040987      0.017888     -0.017311
Li	      6.53485      2.02530      4.25378        -0.037921      0.013577     -0.042318
Li	      4.35282      2.06177      6.11596         0.065092      0.008821      0.041857
Li	      6.49865      4.15900      6.12308        -0.008438     -0.018835      0.052198
Li	      8.57585      6.33317     10.28193         0.025759     -0.047500     -0.024905
Li	      4.34244      6.29495      6.12643        -0.029945     -0.030326      0.057893
Li	      6.51057      6.23747      8.11132         0.009193     -0.018298      0.053390
Ti	      4.37492      8.23449      8.12947         0.120623     -0.167224     -0.074235
Ti	      4.31958      4.22548      4.25974        -0.014677     -0.015305      0.204795
Mn	      2.14292      6.24174      8.14733         0.019422     -0.074307      0.004410
V	      8.59702      4.23631      8.03826         0.140666     -0.019018     -0.137041
Cr	      6.46080      2.09752      8.11079         0.171017     -0.136218     -0.010340
Co	      6.46406      6.26854      4.22025         0.021975     -0.043429      0.034287
Co	     10.63510      8.55249     10.31100        -0.060056     -0.038286     -0.053449
Co	      6.42168      8.30732      6.09904        -0.016663      0.043285      0.103045
Cu	      8.62496      8.31416      8.17439        -0.011177      0.011500     -0.193299
O	      2.15553      2.13414      2.03687        -0.041897     -0.040387      0.213337
O	      4.22095      4.20071      2.08858        -0.036538      0.011338     -0.071881
O	      4.26002      2.25348      3.96305        -0.139914     -0.026327      0.041943
O	      6.26818      4.17177      3.96101        -0.045062      0.136204      0.082780
O	      6.48608      2.09374      6.20091         0.053588      0.001847     -0.116971
O	      8.61577      4.16536      6.29061        -0.014993      0.023111     -0.028175
O	      2.29212      4.21012      3.95410         0.031773     -0.067238      0.102852
O	      4.31426      6.19841      4.04069         0.110781      0.026362      0.030103
O	      4.30548      4.19607      6.12853        -0.025499     -0.009647     -0.237010
O	      6.46867      6.32711      6.17378         0.007503     -0.014601     -0.289188
O	      6.64113      4.08815      8.26802         0.111738      0.153694      0.113079
O	      8.77724      6.19462      8.15760        -0.132189      0.088970      0.078244
O	      2.16467      6.17429      6.29289        -0.039687      0.033273     -0.104412
O	      4.27757      8.35674      6.21187        -0.003816     -0.011218     -0.007108
O	      4.23139      6.38653      8.24213         0.022318      0.160967      0.031708
O	      6.26520      8.38912      8.24155        -0.369573      0.057988     -0.014574
O	      6.48564      6.12789     10.24664        -0.022009      0.010490     -0.005077
O	      8.70566      8.34276     10.08979         0.078364      0.017864      0.129954
