# total energy = -230.74579834 eV
 
CRYSTAL
PRIMVEC
0.006425 6.353378 6.259399 
6.262026 0.001031 6.264877 
4.162886 4.227409 0.012519 
PRIMCOORD
36 1
Li	      6.15785      0.08755      6.23340         0.027512     -0.016259     -0.012539
Li	      8.23339      2.22782      6.24265         0.034130     -0.041379     -0.011055
Li	      8.34716      4.23009      4.33213         0.007358      0.024510     -0.090035
Li	      6.26342      2.10781      4.32897         0.040973     -0.045540     -0.075818
Li	      6.26721      2.10627      8.21719         0.036069     -0.060448      0.041455
Li	      8.30974      4.25597      8.22083        -0.018095     -0.016870      0.001574
Li	      8.47543      6.20963      6.28359        -0.016977     -0.046869      0.020365
Li	      4.16650      8.46825      4.20191        -0.015140     -0.009136      0.016596
Li	      2.06800      4.26768      6.24210        -0.034115      0.046866      0.033160
Ti	      4.16159      8.55736      8.24310        -0.003831      0.060407     -0.278060
Ti	      2.12449      2.15933      4.22363        -0.007329      0.201997     -0.023238
Mn	      4.21150      4.19725      8.32732        -0.202494      0.035673      0.070569
V	      8.31289      6.35387     10.47116         0.048856     -0.052103      0.002087
Cr	      6.27209      6.32619      8.36424        -0.012612      0.094321      0.010135
Co	      4.15207      4.23494      4.22337         0.026275     -0.024210     -0.004239
Co	      2.10225      6.36096      8.28409        -0.033390     -0.029287      0.149461
Co	      4.14844      6.37884      6.25549        -0.130688      0.037589     -0.207407
Ni	      6.32846      4.14999      6.27537        -0.078305      0.112391     -0.041015
O	      2.20410      2.11691      2.22372         0.072499      0.138937      0.080970
O	      4.21525      4.08715      2.11172         0.317955      0.061094     -0.091524
O	      4.03522      2.14430      4.12874        -0.075580     -0.018213     -0.008044
O	      6.21475      4.41783      4.15413        -0.017629     -0.070741     -0.440994
O	      6.27246      2.23010      6.26253        -0.039662     -0.119102     -0.010212
O	      8.22727      4.19533      6.25322         0.150276      0.031679     -0.014186
O	      2.08007      4.19516      4.23325         0.030252     -0.109848     -0.003438
O	      4.15682      6.33492      4.13298         0.028077     -0.011446      0.056612
O	      4.29470      4.27655      6.35222         0.014860      0.082013      0.109210
O	      6.23388      6.29762      6.25377         0.146541     -0.065404     -0.081417
O	      6.15722      4.36063      8.33627         0.004298     -0.097160      0.063085
O	      8.25616      6.28092      8.47003         0.023932     -0.048353     -0.035398
O	      2.12107      6.34053      6.16402        -0.068626      0.022290      0.454730
O	      4.15351      8.43528      6.40166         0.052467     -0.045988      0.313968
O	      4.23358      6.45889      8.42779        -0.220692      0.012955     -0.010759
O	      6.25845      8.39932      8.36322         0.038303     -0.127530     -0.029963
O	      6.43249      6.29381     10.37597        -0.121270     -0.013813      0.026398
O	      8.38789      8.23527     10.29811        -0.004199      0.106979      0.018967
