# total energy = -233.20297352 eV
 
CRYSTAL
PRIMVEC
-0.018800 6.208583 6.429449 
6.194670 0.005463 6.404170 
4.146792 4.139793 -0.013382 
PRIMCOORD
36 1
Li	      6.19765      6.19984     12.64981        -0.000506      0.052310     -0.033394
Li	      4.17777      8.17336      8.55061        -0.060387     -0.000346     -0.042620
Li	      4.24832      6.15073     10.51726        -0.022808      0.033607      0.020570
Li	      4.12984      6.22825      2.17180         0.029293     -0.001028      0.020925
Li	      4.15498      2.02685      6.35801         0.009219     -0.053262     -0.010551
Li	     10.20286      8.41081     10.72423         0.003408      0.010597      0.038183
Li	      8.13528      6.30637     10.71888        -0.105364     -0.003727      0.024194
Li	      8.21805      8.35444      8.75365        -0.005566     -0.035075      0.066528
Li	      6.05792      6.28435      8.75941        -0.000943      0.026806      0.049780
Ti	      4.15641      4.14291      4.13629        -0.092390      0.030974     -0.076381
Ti	      6.15734      4.08444      6.52489        -0.022429      0.030862      0.179844
Mn	      6.16140      8.28625      6.52608        -0.099079      0.014067     -0.034248
V	      8.25459      4.27831      8.49798         0.020298     -0.301248     -0.019773
Cr	      2.11552      2.04781      4.22232        -0.012802      0.060269     -0.056201
Co	      2.11384      6.16569      8.56074         0.098030      0.107901     -0.054479
Co	      4.12816      6.24697      6.50931         0.103332     -0.127864     -0.277704
Co	      2.10033      8.23778      6.36142         0.157761     -0.145409      0.026012
Co	      6.22257      8.21144     10.65970         0.077877     -0.173173     -0.010576
O	      2.05529      2.17618      2.18558         0.021173     -0.050054      0.055359
O	      4.09054      4.16897      2.22808         0.040343      0.016004      0.190834
O	      4.15117      2.18457      4.25506         0.040212      0.097308      0.008601
O	      6.15928      4.15331      4.37811        -0.101512     -0.007672     -0.046518
O	      6.18729      2.19957      6.26310        -0.016695      0.164571     -0.003683
O	      8.14812      4.12086      6.54512        -0.079470     -0.093826     -0.010085
O	      2.16549      4.05587      4.16504         0.096964     -0.005970     -0.005389
O	      4.25675      6.07415      4.27535        -0.035970      0.024965      0.260135
O	      4.14316      4.11434      6.28743        -0.015164      0.369575      0.127044
O	      6.25278      6.18951      6.24054         0.038086     -0.051223      0.022242
O	      6.22174      4.12620      8.39502        -0.014320      0.022480     -0.176805
O	      8.27866      6.00738      8.55506        -0.034585      0.245760      0.025150
O	      2.04203      6.11390      6.42905        -0.002125      0.023449      0.005798
O	      4.21845      8.29200      6.36944         0.041352     -0.492803      0.177974
O	      4.07411      6.20343      8.51224        -0.022849      0.048139     -0.394276
O	      6.20218      8.30536      8.70099         0.026319      0.005991      0.023862
O	      6.15661      6.34874     10.70163         0.001043      0.041961     -0.003859
O	      8.13629      8.25951     10.77424        -0.059746      0.115081     -0.066494
