# total energy = -224.18158262 eV
 
CRYSTAL
PRIMVEC
-0.003892 6.051877 6.404144 
6.280274 0.012467 6.388834 
4.209640 4.046418 -0.014430 
PRIMCOORD
36 1
Li	      0.01613      6.02384      6.39471        -0.003378     -0.055801     -0.006996
Li	      2.19292      6.05047      8.50916        -0.020777     -0.039126      0.016254
Li	      4.21125      6.01006     10.52099         0.011553     -0.040902     -0.010097
Li	      2.05713      4.05473      2.22329        -0.036863      0.060310     -0.042453
Li	      6.38567      4.14478     10.61560        -0.035829     -0.034931     -0.014454
Li	      2.11530      4.05002      6.34079        -0.012206     -0.002659      0.043877
Li	      4.17028      6.07243      6.54013        -0.019885      0.026408      0.010588
Li	      4.24776      4.20152      8.39593        -0.056405     -0.106706     -0.051844
Li	      6.16513      5.96365      8.52479         0.075041      0.045940     -0.035631
Ti	      6.33273      8.05536     10.49634         0.150331     -0.063034     -0.241502
Ti	      4.17985      6.06216      2.20734        -0.213976      0.235380      0.040506
Mn	      8.37471      6.02711      6.39066         0.009212     -0.047199      0.002668
V	      2.17173      8.05600      6.42084        -0.026597      0.175679      0.034313
Cr	      4.18630      8.06024      8.51809        -0.068934      0.037769      0.022444
Cu	      2.06347      6.01439      4.25766         0.057073      0.065469     -0.060570
Ni	      6.30591      6.08240      4.27557        -0.073823     -0.029212     -0.055189
Ni	      6.26050      4.05404      6.41246         0.027363      0.032811      0.052663
Ni	      4.15926      4.06075      4.28904         0.028870     -0.029249      0.029215
O	      2.07841      2.04375      2.09100         0.032146     -0.020701      0.013964
O	      4.21849      4.09317      2.19420        -0.038619      0.008095     -0.107993
O	      4.25194      1.98160      4.31386         0.107037     -0.064055     -0.235931
O	      6.24103      3.98074      4.32974         0.107219     -0.088727     -0.143803
O	      6.21673      1.98492      6.42101         0.038952     -0.077173     -0.065016
O	      8.33487      3.98820      6.35587         0.144765      0.071773      0.010327
O	      2.12461      4.08091      4.28640        -0.112445     -0.048538      0.008211
O	      4.18187      6.10271      4.13482        -0.029733      0.117955     -0.100392
O	      4.21071      3.89175      6.35230        -0.121348      0.006739      0.052114
O	      6.48746      6.05206      6.31219        -0.057535      0.175939      0.051209
O	      6.27942      3.91301      8.48612        -0.010786     -0.218440      0.108883
O	      8.49348      6.04713      8.27379         0.090757      0.020608      0.304537
O	      2.08104      6.27548      6.45069        -0.037068     -0.213890      0.017129
O	      4.06425      8.12414      6.54419         0.147366     -0.027911     -0.013038
O	      4.19523      6.13577      8.51174        -0.017722      0.036872      0.093425
O	      6.20475      8.10365      8.65135         0.011146     -0.015346      0.299909
O	      6.33865      6.15456     10.64978         0.007072      0.057011      0.024797
O	      8.26272      8.05734     10.77785        -0.051975      0.048843     -0.052125
