# total energy = -224.07718905 eV
 
CRYSTAL
PRIMVEC
0.025185 6.222825 6.389238 
6.171820 0.041419 6.372606 
4.135640 4.158662 0.006271 
PRIMCOORD
36 1
Li	      4.12705      2.09875      2.22846        -0.072001      0.074481      0.031237
Li	      4.22086      6.28843     10.63145        -0.011847     -0.089702      0.033853
Li	      6.17900      8.24118     10.63990         0.072917      0.014642      0.045386
Li	      2.08987      4.15101      2.17063         0.070892     -0.050777     -0.031832
Li	      4.11503      4.09306      4.26865         0.003330      0.012250     -0.024726
Li	      6.15019      4.22606      6.37032        -0.019679      0.031334      0.018546
Li	      6.15748      4.26655     10.63517        -0.057645      0.009060      0.023512
Li	      8.17517      6.30993     10.63030         0.002126      0.054509      0.006128
Li	      4.17164      6.21012      6.36720         0.026560      0.000047      0.002249
Ti	      4.10101      6.30741      2.26354         0.049459      0.045963      0.225737
Ti	      2.15226      4.08198      6.26069         0.201347     -0.150613     -0.199077
Mn	      8.29099      8.38577     12.66185        -0.006213     -0.011350      0.016005
V	      6.24682      4.15920      2.26499        -0.128036      0.127225     -0.051130
Cr	      6.18867      6.26915     12.66955        -0.002245     -0.019332      0.052247
Cu	      2.11915      2.11143      4.24005        -0.135135     -0.048604     -0.008382
Cu	      8.28238      8.34688      8.59499         0.011313     -0.088401      0.108568
Ni	      4.11757      2.08455      6.30240         0.076446     -0.100897      0.080080
Ni	      6.16377      6.23182      8.64806         0.074608      0.020542     -0.006366
O	      1.99688      2.00913      1.91709        -0.000842      0.052661     -0.058554
O	      4.21548      4.27350      1.99974        -0.040812      0.040179      0.010726
O	      4.02250      2.08010      4.31945         0.123070     -0.004311     -0.176277
O	      6.16052      4.23627      4.03404        -0.011986     -0.061697      0.094142
O	      6.26812      2.07939      6.39633         0.003294      0.014547      0.041653
O	      8.30475      4.08796      6.37773        -0.029742      0.009509      0.000480
O	      2.05308      4.11915      4.39915        -0.005776      0.087171      0.149286
O	      4.25172      6.21922      4.08984        -0.140732     -0.015861     -0.274111
O	      4.01879      4.15237      6.29560        -0.196908      0.125888     -0.044964
O	      6.19187      6.35499      6.59327        -0.096374      0.127898     -0.021476
O	      6.14855      4.12267      8.49229         0.180785     -0.093496     -0.008540
O	      8.33563      6.29317      8.44219         0.056895     -0.122824      0.047814
O	      2.04913      6.21818      6.48197         0.030380     -0.035477     -0.023392
O	      4.11223      8.37605      6.40434         0.060159     -0.014262     -0.003754
O	      4.06646      6.16438      8.52032         0.045494      0.099265     -0.021124
O	      6.24875      8.41001      8.44959        -0.108059     -0.073943     -0.018733
O	      6.21821      6.26570     10.67470        -0.025924      0.007203      0.105136
O	      8.26956      8.31304     10.84264         0.000881      0.027174     -0.120348
