# total energy = -136.55190740 eV
 
CRYSTAL
PRIMVEC
2.082576 2.082445 0.000046 
-6.266212 6.265829 -0.000187 
0.000177 -0.000010 7.895007 
PRIMCOORD
24 1
Li	     -3.14548      5.22539      0.98506        -0.009299      0.013332      0.004294
Li	     -3.14795      5.23153      4.93620        -0.004970      0.000299     -0.005767
Li	     -1.04571      3.12814      0.95083        -0.005424      0.003154      0.031613
Li	     -1.04992      3.12868      4.97141         0.005659      0.001261     -0.032201
Li	     -5.21517      7.29824      0.98543         0.001875     -0.005187      0.006499
Li	     -5.21083      7.29573      4.93663        -0.010800      0.001143     -0.005929
Mn	      1.06277      3.10223      2.96188        -0.007386      0.004887     -0.002837
Mn	     -1.07544      5.23953      2.96093         0.010962     -0.012857      0.002342
Mn	     -3.13946      7.30348      6.90904         0.005452     -0.004125     -0.002685
Ni	      1.00513      3.15929      6.90830         0.039339     -0.039594      0.002339
Ni	     -1.01696      5.18129      6.90801        -0.045972      0.043865      0.003346
Ni	     -5.22151      5.22148      2.95959         0.000859     -0.003953      0.008558
O	     -3.11923      5.20082      2.96024         0.092596     -0.092033      0.001652
O	     -3.22335      5.30461      6.90864        -0.073573      0.075630     -0.001222
O	     -1.04729      3.12847      2.96183         0.004707     -0.002288     -0.002852
O	     -1.04749      3.12907      6.90853         0.004975     -0.002973     -0.001106
O	      1.02362      1.05912      2.96146        -0.086559      0.086764     -0.001261
O	     -5.13795      7.21926      6.90900         0.069637     -0.067707     -0.001127
O	     -3.13980      7.30319      0.91679         0.002414      0.001407     -0.102215
O	     -5.22206      5.22190      5.00518         0.001902     -0.001994      0.102258
O	     -1.05682      5.22032      1.06992        -0.009340      0.011084      0.075393
O	     -1.05834      5.22172      4.85200        -0.004988      0.007683     -0.074828
O	      1.04518      3.11958      1.07048         0.008668     -0.008428      0.072479
O	      1.04503      3.11962      4.85279         0.009266     -0.009368     -0.076742
