# total energy = -222.65412131 eV
 
CRYSTAL
PRIMVEC
-0.062317 6.235672 6.175753 
6.407891 -0.012327 6.125722 
4.287752 4.139994 -0.024610 
PRIMCOORD
36 1
Li	      8.50018      8.29654     12.22538         0.011221      0.017906     -0.051201
Li	      6.40434      8.35171     10.22098         0.036287     -0.000371      0.009850
Li	      2.08638      4.13186      2.15921        -0.001553     -0.034010     -0.096858
Li	      6.31392      6.32285      4.15096         0.034183     -0.061247     -0.051986
Li	      8.44853      6.24887      6.16148         0.003378     -0.017739      0.038394
Li	      4.33455      8.19329      4.11469        -0.019176      0.042229      0.031104
Li	      2.21631      6.15360      4.11336        -0.017156      0.056022      0.058713
Li	      2.12179      4.08494      6.05446        -0.014540      0.043528      0.012901
Li	      4.36878      6.17643      6.01475         0.038729     -0.049273      0.047279
Ti	      6.38879      0.11689      5.99430        -0.102978      0.208387     -0.186503
Ti	      6.35715      4.17170      1.99314        -0.043282      0.240119     -0.089513
Mn	      8.54934      8.24917      8.16751         0.025276     -0.320118      0.068088
V	      4.22417      8.25207      8.15317        -0.062630     -0.020295     -0.058196
Cr	      8.53927      4.12200      4.07852        -0.008782     -0.077668      0.077806
Cu	      4.23205      6.24424      2.12246         0.017618      0.116582     -0.079899
Cu	      4.03512      4.21401      4.24002         0.077586     -0.121646      0.063277
Cu	      6.34817      4.14363      6.09726         0.022023     -0.154827     -0.145926
Cu	      6.50072      6.19953      8.15482         0.127702      0.081493      0.162365
O	      6.41305      6.07235      6.22183        -0.027490     -0.007260     -0.020084
O	      2.26491      1.95278      2.01514         0.167428     -0.289867      0.010192
O	      4.38698      4.00536      1.94194         0.149437     -0.061212     -0.061102
O	      4.31866      2.04537      3.86868        -0.011057     -0.009587     -0.022875
O	      6.50827      4.11629      3.99464         0.094896      0.074996     -0.078146
O	      6.42613      2.03111      6.23531        -0.011827     -0.156923     -0.049125
O	      8.74221      4.12897      6.06390         0.326228      0.067219     -0.069182
O	      2.13942      4.15249      4.08037        -0.153914     -0.047180      0.059089
O	      4.27592      6.13387      4.02721         0.012157      0.011636      0.058224
O	      4.17666      4.13978      6.31753        -0.113899     -0.004283     -0.104979
O	      6.19407      4.26007      8.20353         0.068453     -0.014740      0.023967
O	      8.61425      6.38309      8.23158        -0.147185      0.151700     -0.045374
O	      1.89817      6.25292      6.26382        -0.095278      0.006119      0.136220
O	      4.23675      8.35392      6.31012         0.050635      0.019048     -0.034641
O	      4.04033      6.20951      8.22496        -0.221560      0.018624      0.049470
O	      6.35988      8.32895      8.17729        -0.174120      0.219574     -0.020354
O	      6.25725      6.26104     10.28041        -0.037288     -0.003336      0.247779
O	      8.48888      8.40124     10.12161         0.000479      0.076398      0.111227
