# total energy = -230.59039937 eV
 
CRYSTAL
PRIMVEC
-0.011998 6.155083 6.205142 
6.380580 -0.008129 6.200896 
4.258343 4.105737 -0.009990 
PRIMCOORD
36 1
Li	      8.42302      2.03088      6.26398        -0.029519      0.001408     -0.050228
Li	      2.07192      0.14582      2.06543        -0.065760      0.010769     -0.005447
Li	      4.09217      2.08850      2.04030        -0.081894     -0.020001      0.004134
Li	      4.35569      6.09722      2.09663        -0.000394      0.029889      0.015272
Li	      6.24320      6.16466      4.03865         0.031776      0.031193      0.049577
Li	      4.37389      2.00480      6.21600         0.037571      0.041615     -0.031548
Li	      6.42486      4.00366      6.20476         0.014249     -0.041024     -0.010763
Li	      4.24130      8.09957      4.14677         0.038605      0.016866      0.011941
Li	      2.28736      6.15645      4.13660         0.041136      0.004199      0.029723
Ti	      4.12398      0.12390      4.09711        -0.072597      0.171955     -0.040297
Ti	      8.63789      8.07983      8.31738         0.110385     -0.169158      0.088370
Mn	      0.01473      6.16683      6.19234         0.035482      0.068402     -0.034226
V	      6.37313      8.18099      6.17330         0.007893      0.033437      0.005935
Cr	      4.28998      4.11476      4.14094         0.026166     -0.067102      0.033416
Fe	      2.12437      4.01097      2.07139        -0.084408      0.245281      0.006695
Co	      6.38070      8.18180     10.32529         0.040891      0.024825     -0.110811
Cu	      6.38170      6.16583      8.26955         0.058509     -0.095896     -0.040153
Ni	      4.18897      6.23405      6.22074        -0.015775     -0.017761      0.047404
O	      2.06725      2.16366      2.03896         0.009212     -0.196249      0.008746
O	      4.15587      4.10083      2.15626         0.054135     -0.000489     -0.097921
O	      4.17527      1.99505      4.12610        -0.048801     -0.161620      0.004328
O	      6.40050      4.03171      4.19059         0.082592      0.001034     -0.046680
O	      6.42034      1.89570      6.08787        -0.021686     -0.006478      0.015566
O	      8.60586      4.09580      6.12300        -0.027871      0.013363     -0.055785
O	      2.24746      4.11537      4.17975         0.026111      0.002218      0.014472
O	      4.27857      6.06427      4.24017         0.012600      0.021667     -0.189711
O	      4.16595      4.13460      6.23133        -0.023507     -0.120251      0.018845
O	      6.30061      6.34261      6.25912         0.060825     -0.133597     -0.074500
O	      6.35162      4.19131      8.21161        -0.111572     -0.177999      0.034700
O	      8.63737      6.22370      8.25453         0.064555      0.164905      0.013705
O	      2.04903      6.01265      6.21544        -0.060717      0.099473      0.006903
O	      4.38423      8.29769      6.18209        -0.088054      0.092133      0.036968
O	      4.08471      6.09466      8.34355        -0.052612     -0.006178      0.175369
O	      6.55339      8.14666      8.21575        -0.020751      0.210295      0.104170
O	      6.18260      6.21951     10.25092         0.019999     -0.073736      0.166012
O	      8.57520      8.28620     10.19274         0.033228      0.002614     -0.104183
