# total energy = -231.20087023 eV
 
CRYSTAL
PRIMVEC
0.008617 6.341962 6.424270 
6.160032 0.000515 6.429964 
4.079914 4.207147 0.025672 
PRIMCOORD
36 1
Li	      2.06530      2.11642      0.17651        -0.000649      0.014113      0.081088
Li	      2.06045      0.13415      2.13437         0.018307      0.045020      0.011400
Li	      8.22404     10.50823     10.73619         0.064221     -0.033135     -0.014809
Li	      0.15335      2.09827      2.17719         0.046138      0.032828      0.039656
Li	      2.02637      4.10101      2.24012        -0.046736     -0.006746      0.004215
Li	      2.00093      2.18118      4.19878        -0.040746      0.064034      0.007886
Li	      4.13688      8.35422      4.38759         0.009724     -0.032567     -0.009606
Li	      6.09188      8.37984      6.36512        -0.024601     -0.026183     -0.050483
Li	      4.10817      6.37823      6.33196         0.004103     -0.010976     -0.027177
Ti	      6.25004      4.25786      6.39569         0.100027      0.232924      0.146609
Ti	      8.12143      8.49401      8.58347         0.034049      0.120525      0.054261
Mn	      4.07769      8.40379      8.56655        -0.078241      0.018218     -0.025145
V	      0.07504      0.00766      0.08077        -0.132557      0.111942      0.261329
Cr	      8.19166      6.32914     10.70246         0.019635     -0.003952     -0.037264
Fe	      4.04161      4.28701      4.18534         0.108664     -0.061622      0.020967
Co	      4.11329      2.10045      6.40428         0.015812     -0.059886      0.027070
Cu	      6.14704      2.10106      4.33595         0.049806      0.126007      0.032871
Cu	      6.11390      6.30932      8.56946        -0.069764     -0.113387     -0.036195
O	      2.20644      2.07795      2.19807         0.148115      0.004359      0.081080
O	      4.13283      4.23657      2.12252         0.049223      0.041870     -0.026733
O	      4.16520      2.20725      4.22217        -0.159360      0.006436     -0.056667
O	      6.09460      4.10839      4.47751         0.025785      0.039392     -0.128374
O	      6.14917      2.12360      6.59259         0.030304      0.043368      0.165905
O	      8.22251      4.20691      6.46330        -0.197819      0.055725      0.003872
O	      2.09476      4.32343      4.29639        -0.060218      0.025606      0.018448
O	      4.02333      6.25173      4.28658        -0.032075      0.059500      0.039506
O	      4.18601      4.19672      6.49813         0.040698     -0.046309     -0.019431
O	      6.15653      6.14396      6.32702         0.051307     -0.315895     -0.190548
O	      6.04460      4.26280      8.44821        -0.084211     -0.110843     -0.078869
O	      8.08365      6.42586      8.66176         0.069280      0.035681      0.005402
O	      1.89599      6.40722      6.32878         0.152138      0.018664      0.036818
O	      4.06727      8.61578      6.55630         0.003859     -0.011411      0.006568
O	      4.10156      6.19193      8.58426        -0.120967     -0.165624     -0.063597
O	      6.13815      8.32966      8.43740         0.013837      0.089012     -0.207775
O	      6.17315      6.42686     10.93451        -0.062500     -0.168430     -0.008169
O	      8.17069      8.36817     10.53396         0.055413     -0.018261     -0.064107
