# total energy = -232.08677314 eV
 
CRYSTAL
PRIMVEC
0.020803 6.177049 6.251327 
6.456016 0.017493 6.254401 
4.328849 4.143694 -0.012105 
PRIMCOORD
36 1
Li	      6.65779     10.30664      8.46879         0.056818      0.022211     -0.015867
Li	      4.41758      8.08852      8.49163         0.054867     -0.011925     -0.034164
Li	      4.24066      0.14770      4.01627        -0.041253     -0.009226      0.057574
Li	      4.36740      6.20866      2.12616         0.010695     -0.006025     -0.036975
Li	      6.53999      6.13114      4.16097        -0.007945      0.035068     -0.059167
Li	      4.43556      3.98873      4.13180         0.050383     -0.042645      0.032748
Li	      4.19188      2.13384      6.06046        -0.008230     -0.041714      0.004654
Li	      4.38252      6.17911      6.36864         0.037937      0.034985     -0.012227
Li	      6.32791      6.23853      8.32022        -0.024964      0.019662     -0.063609
Ti	      2.24264      4.11220      2.09488        -0.040628     -0.044879     -0.087678
Ti	      2.35117      6.17536      4.16880         0.306846      0.065274      0.007688
Mn	      6.43007      0.05079      6.22794        -0.036238      0.092666     -0.054374
V	      2.16713      2.06242      0.05505        -0.023795     -0.109986     -0.222177
Cr	      4.29383      4.19099      8.34209         0.019070     -0.017113      0.133713
Fe	      6.36678      4.28748      6.17697         0.069633     -0.126209      0.043976
Co	      6.54634      8.18045      6.32016         0.068299     -0.100564      0.005595
Co	      6.40648      2.10721      4.11810        -0.021028     -0.050481     -0.052498
Cu	      6.46987      4.17987     10.34179         0.045387     -0.055509      0.067602
O	      2.11832      2.15904      2.02182        -0.001481      0.149250      0.155943
O	      4.12287      4.16433      1.93480        -0.190780      0.021781     -0.266312
O	      4.53983      2.05575      4.15986         0.008177      0.059306     -0.069600
O	      6.45276      4.04323      4.24617        -0.026678     -0.033522     -0.088629
O	      6.60596      2.07087      6.13776        -0.117684     -0.232036      0.159184
O	      8.50150      4.13701      6.40299        -0.077264      0.076793      0.023136
O	      2.27220      4.20977      4.09392         0.154712      0.042321     -0.204200
O	      4.18546      6.33593      4.13537        -0.237763     -0.237790      0.047335
O	      4.40007      4.09977      6.37947        -0.169087     -0.006250     -0.092280
O	      6.46824      6.19312      6.16073        -0.009994      0.183306      0.015072
O	      6.46089      4.14340      8.32549         0.044904      0.006414     -0.088110
O	      8.60768      6.14991      8.47087        -0.012172     -0.043483      0.217206
O	      2.16906      6.14758      6.14384         0.043869      0.031010     -0.004879
O	      4.16334      8.36642      6.11241         0.193740      0.217311      0.077280
O	      4.32318      6.10118      8.35280         0.017370      0.057101     -0.030689
O	      6.60407      8.26935      8.37633         0.045962     -0.032487      0.108539
O	      6.59136      6.21387     10.51469        -0.042123      0.201265      0.260678
O	      8.43838      8.19169     10.42546        -0.139561     -0.113878      0.065513
