# total energy = -233.70755060 eV
 
CRYSTAL
PRIMVEC
0.030257 6.244245 6.330505 
6.249585 0.027572 6.333010 
4.173696 4.171762 0.010944 
PRIMCOORD
36 1
Li	      2.19330      8.27097      6.38241         0.002453     -0.028465     -0.010877
Li	      2.11695      6.28459      8.35467        -0.000124     -0.012285     -0.048448
Li	      4.14321      8.31503      8.36415        -0.082085     -0.014535      0.013784
Li	      8.32073      4.21336      8.47298        -0.033082      0.029036     -0.023525
Li	      6.22630      6.33623      4.27559        -0.035302      0.007539      0.061047
Li	      4.29495      8.29734      4.29684         0.055105     -0.015317      0.045287
Li	      2.10607      6.19480      4.25273        -0.021470     -0.000457      0.023704
Li	      4.20776      6.35961      6.33110         0.030045      0.029012      0.012523
Li	      6.30890      6.27698      8.38055         0.007789      0.009487      0.007008
Ti	      4.22114      6.24776     10.45191         0.093709     -0.146269     -0.277503
Ti	      0.13839      2.08972      2.23246         0.199493      0.067812      0.132231
Mn	      4.23944     10.32992      6.36956         0.059701     -0.025839      0.031874
V	      4.16458      4.17440      8.40971         0.072506      0.035736     -0.018841
Cr	      6.27306      8.34097     10.52762         0.094463     -0.047920     -0.063674
Fe	      4.06137      4.18772      4.23883         0.125406      0.042616      0.041587
Co	      6.23756      8.32464      6.35295        -0.061913     -0.003656      0.004052
Co	      6.29872      4.29526      6.36029         0.030082      0.021033      0.088957
Ni	      8.31424      6.25479      6.36177         0.054507     -0.028866      0.023537
O	      1.96226      2.11514      2.07716        -0.250829     -0.035844      0.045939
O	      4.12407      4.28917      2.24915         0.043559      0.012101     -0.087751
O	      4.22757      2.06881      4.21144        -0.001461     -0.049842     -0.116412
O	      6.29240      4.10892      4.31799        -0.002407      0.010378     -0.094664
O	      6.24904      2.01071      6.27371         0.114205     -0.017686      0.001725
O	      8.45122      4.18866      6.21073        -0.058446     -0.136026     -0.043331
O	      2.15162      4.15751      4.41816        -0.170276      0.004584      0.008487
O	      4.19452      6.20487      4.13113         0.016063      0.081509     -0.119941
O	      4.08690      4.16733      6.29345        -0.036586      0.131962     -0.004215
O	      6.29381      6.32654      6.35432        -0.123544      0.141293      0.007035
O	      6.21074      4.10490      8.38884         0.050273     -0.125024      0.030149
O	      8.46676      6.35930      8.39906         0.033874     -0.073666      0.135025
O	      1.97761      6.09770      6.33755         0.050108      0.021641      0.024400
O	      4.30445      8.39540      6.35384        -0.004190     -0.064248      0.034869
O	      4.17482      6.21240      8.55826        -0.036864      0.126238      0.200048
O	      6.37109      8.34881      8.47276        -0.135027      0.016286     -0.082557
O	      6.14918      6.33992     10.49488        -0.110825     -0.057879     -0.072276
O	      8.28743      8.45770     10.51268         0.031091      0.095559      0.090748
