# total energy = -228.14771797 eV
 
CRYSTAL
PRIMVEC
0.007606 6.216616 6.278583 
6.207123 0.020400 6.265966 
4.159659 4.157716 -0.008095 
PRIMCOORD
36 1
Li	      4.21589      8.31915      8.34964         0.034770      0.017865     -0.005752
Li	      8.26900      4.12688      4.21625         0.061929     -0.041337      0.041161
Li	      8.29780      4.16178      8.33198         0.028146     -0.029378      0.008519
Li	      4.15672      4.15942      4.20889        -0.017240      0.016556      0.000950
Li	      4.16689      2.09927      6.25930        -0.008108     -0.004859      0.006909
Li	      6.19629      4.12133      6.24821        -0.055581     -0.047557     -0.011330
Li	     10.34579      8.30913     10.44002        -0.009527      0.060312     -0.023668
Li	      8.28488      6.26362     10.44655        -0.090921      0.022272      0.010157
Li	      8.27507      8.33034      8.36688        -0.045988      0.015032     -0.014952
Ti	     10.19010      6.28579      8.39927        -0.199912     -0.113344      0.045752
Ti	      2.24811      2.14304      4.19896         0.366564      0.298948      0.031163
Mn	      8.32064      8.40296     12.47357         0.015998     -0.003146      0.049242
V	      6.21779      6.14901      8.40168        -0.018916     -0.149113      0.087211
Cr	      6.24523      4.14972      2.12968        -0.010542      0.017273     -0.020397
Fe	      4.15586      6.15194      6.20910        -0.060574      0.099272     -0.070578
Cu	     10.35365     10.35870     12.52092        -0.023459     -0.030953     -0.069126
Cu	      2.08435      4.14552      6.25064         0.038637     -0.082368     -0.086532
Ni	      6.18001      2.15450      4.20001        -0.084178     -0.105184      0.029723
O	      2.02536      2.03012      2.16567         0.006124     -0.011439      0.016903
O	      4.25950      4.32692      2.17206         0.039533      0.193483      0.135782
O	      4.09048      2.07751      4.19309        -0.380629      0.006688      0.009732
O	      6.24293      4.23080      4.10304         0.021534      0.146206      0.040722
O	      6.15646      2.05516      6.39425         0.071532      0.117158      0.104821
O	      8.40691      4.05008      6.25401        -0.067691      0.062796      0.036453
O	      2.08007      4.00401      4.20074         0.014925     -0.293446     -0.034820
O	      4.21836      6.26736      4.12063         0.021185      0.010741     -0.061627
O	      4.02287      4.26771      6.23374         0.137985     -0.165113      0.011206
O	      6.19354      6.09744      6.29153         0.049261     -0.139565     -0.077399
O	      6.20143      4.15036      8.34947        -0.029234     -0.173684     -0.027690
O	      8.29741      6.21038      8.35927         0.233017      0.020836     -0.012636
O	      2.07992      6.39932      6.36348         0.050575      0.192490      0.016288
O	      4.26125      8.29312      6.24763        -0.130341     -0.083646     -0.011307
O	      4.20758      6.23082      8.24763        -0.086795      0.039620     -0.035635
O	      6.22487      8.30186      8.35686         0.016325      0.109987     -0.035673
O	      6.22289      6.26679     10.16575         0.000232      0.033734     -0.130412
O	      8.20394      8.31109     10.57153         0.111363     -0.007135      0.046838
