# total energy = -136.15855286 eV
 
CRYSTAL
PRIMVEC
0.000004 -0.000022 3.927852 
2.060395 6.334430 -0.000021 
-8.302117 0.020040 0.000023 
PRIMCOORD
24 1
Li	     -5.15194      3.17183      0.98319         0.005872     -0.015937      0.000446
Li	     -3.10326      1.07101      0.98303         0.000639     -0.008098      0.001741
Li	     -3.09837      5.29591      0.98330         0.016956      0.003597     -0.001434
Li	     -1.05431      3.16675      0.98321        -0.002900      0.011735     -0.000713
Li	     -7.30971      1.08741      0.98333        -0.004652      0.016623     -0.000566
Li	      0.99975      5.27750      0.98309        -0.018271     -0.000723      0.000924
Mn	      1.01150      3.15261      2.94712         0.101746     -0.017019     -0.000298
Mn	     -5.17034      1.08633      2.94712        -0.100632      0.019307      0.000132
Mn	     -5.20030      5.29664      2.94712         0.000825      0.000025     -0.000861
Ni	     -1.08946      1.06623      2.94714         0.036510     -0.028108     -0.000431
Ni	     -1.04946      5.28674      2.94699        -0.000135     -0.002077     -0.000133
Ni	     -3.06931      3.17256      2.94712        -0.036129      0.025561     -0.000071
O	     -5.27048      3.07208      2.94716        -0.044564      0.000993      0.000454
O	     -3.23188      1.05465      2.94723        -0.021132     -0.056033     -0.001356
O	     -3.22548      5.42999      2.94697        -0.030206      0.033156      0.002450
O	     -0.92723      3.18467      2.94717         0.022749      0.046446     -0.001355
O	     -7.19039      1.18712      2.94710         0.038816     -0.011165      0.001496
O	      1.12696      5.14284      2.94705         0.026603     -0.021601     -0.000193
O	     -5.19994      5.29622      0.98315        -0.003320      0.004018      0.000431
O	     -3.07777      3.23485      0.98319        -0.066808      0.013091      0.000465
O	     -5.19831      1.09105      0.98316         0.023576     -0.011468      0.001616
O	     -1.04956      5.28613      0.98306        -0.000094      0.003319      0.000232
O	     -7.26230      3.16782      0.98328        -0.020423      0.008881     -0.001610
O	     -1.08122      1.00377      0.98322         0.074976     -0.014522     -0.001367
