# total energy = -233.89369591 eV
 
CRYSTAL
PRIMVEC
0.002474 6.318956 6.361959 
6.280646 -0.028592 6.393176 
4.172608 4.219017 -0.004958 
PRIMCOORD
36 1
Li	      8.30013      2.11020      6.39066        -0.010780      0.017512     -0.017877
Li	      2.11995      6.27473      8.39486        -0.018971     -0.019541     -0.131269
Li	      8.30742      4.19130      4.38141         0.037594     -0.025206      0.064570
Li	      6.32098      2.11991      4.34366         0.058214     -0.057793      0.109569
Li	      6.28667      6.32911      4.38171         0.035255     -0.001974      0.047496
Li	      8.34828      6.25308      6.34145         0.048098     -0.039873     -0.006460
Li	      6.33281      4.23699      6.33750         0.072187      0.024880      0.042326
Li	      4.21208      6.27415      6.38004         0.017113      0.043715     -0.021089
Li	      4.14693      4.23571      8.47204        -0.063587      0.005298      0.033687
Ti	      4.13614      1.98595      2.23677         0.039233     -0.306106      0.099197
Ti	     10.29972      8.40553     10.70672        -0.382425      0.472818     -0.036694
Mn	      6.27775      6.29514      8.39583         0.071605     -0.043970      0.110514
V	      4.36999      4.23554      4.32437        -0.098869      0.042924      0.044228
Cr	      2.11521      4.20643      2.09762         0.044441      0.062618     -0.159251
Fe	      6.29845      2.07062      8.37765         0.070081     -0.114811      0.013985
Fe	      2.13891      4.18048      6.35554        -0.146763      0.080463      0.011495
Co	      2.09790      6.32505      4.28776        -0.013093      0.079183      0.031615
Cu	      6.24592      0.04347      6.33859        -0.031482      0.083792     -0.074110
O	      2.16719      2.17943      2.09572         0.084505      0.042141      0.039437
O	      4.12370      4.22680      2.30559         0.014638     -0.040296      0.405724
O	      4.20408      2.22043      4.12178         0.018296      0.068357     -0.037802
O	      6.10663      4.21547      4.29002         0.104302      0.009827      0.060336
O	      6.30818      2.02695      6.48682        -0.031895      0.214866     -0.138491
O	      8.45258      4.21617      6.51498        -0.219302     -0.028767      0.052074
O	      2.13364      4.18274      4.21819         0.021194     -0.017159      0.016289
O	      4.20481      6.31026      4.18239         0.066902     -0.179515      0.063745
O	      4.11063      4.25135      6.25021         0.178068      0.008077     -0.393765
O	      6.27416      6.43011      6.34577         0.016852     -0.075657     -0.032991
O	      6.37185      4.06404      8.62958         0.009227      0.064679      0.035458
O	      8.46937      6.21569      8.57609        -0.074545     -0.069256     -0.025670
O	      1.96316      6.21150      6.30283         0.094339     -0.089365     -0.019636
O	      4.19349      8.42921      6.27678         0.021361     -0.247657     -0.071484
O	      4.10670      6.47240      8.52746        -0.068313      0.367805     -0.003970
O	      6.09979      8.47221      8.38876        -0.103130      0.061232     -0.015115
O	      6.28264      6.08180     10.51998        -0.081906     -0.322019     -0.139659
O	      8.46465      8.41290     10.59779         0.221558     -0.071220      0.043589
