# total energy = -234.22675713 eV
 
CRYSTAL
PRIMVEC
0.003629 6.310943 6.386508 
6.228430 0.001394 6.388709 
4.145668 4.202184 0.007581 
PRIMCOORD
36 1
Li	      6.21841      6.32265     12.65712         0.002741     -0.012676     -0.068294
Li	      6.21043      2.27909      8.57597         0.006941     -0.026275      0.049817
Li	      1.97018      4.20063      2.29584         0.033791      0.024251      0.023722
Li	      2.00499      2.24855      4.26500        -0.032124     -0.029690      0.014706
Li	      6.22335      4.19186      6.48522        -0.000005     -0.076272      0.062687
Li	      0.10936      4.18775      4.18809        -0.002347     -0.016383      0.067115
Li	      2.09906      6.20116      4.29681         0.034968      0.005538      0.084247
Li	      2.08306      4.20336      6.19619        -0.029810      0.017853      0.015299
Li	      8.42628      8.30982      8.60150        -0.022149     -0.076833      0.044585
Ti	      4.09733      2.22546      2.01505         0.128949      0.332593     -0.487599
Ti	      8.30244      6.25541      6.49280         0.134133     -0.061677      0.247359
Mn	      4.20390      6.27091      6.34730        -0.025252      0.066405     -0.186147
V	      2.09219      6.30556      8.47820        -0.148443     -0.020930     -0.114690
Cr	      4.07255      4.20334      4.28627         0.046693      0.110693     -0.071643
Fe	      6.32096      8.37549     10.67528        -0.260006     -0.006712      0.040023
Fe	      6.25697      6.11149      8.56981         0.077380      0.179385     -0.002522
Co	      8.25923      2.19976      6.38465         0.089897     -0.268628     -0.087326
Ni	      8.28340      4.20064      4.27067        -0.010995      0.098780      0.036102
O	      2.17279      2.01249      2.14072        -0.100789      0.218716     -0.483644
O	      4.16075      4.12574      2.21999        -0.054897     -0.205810     -0.055092
O	      4.15630      2.12487      4.22702         0.029949     -0.031455     -0.074825
O	      6.18944      4.11344      4.11616        -0.013929      0.026516     -0.004842
O	      6.11595      2.07575      6.32051        -0.008645     -0.003100     -0.015235
O	      8.26618      4.32576      6.31011        -0.017854     -0.036119      0.047176
O	      2.15504      4.20818      4.25162        -0.161128     -0.000084      0.018349
O	      4.17315      6.18205      4.44085        -0.009460      0.115397      0.024013
O	      4.14250      4.02992      6.27150         0.014203     -0.047468      0.104616
O	      6.21778      6.28748      6.49032         0.005446     -0.008520     -0.039553
O	      6.21871      4.25312      8.55671        -0.045334     -0.201414     -0.005714
O	      8.24791      6.32810      8.35857         0.099338     -0.020525     -0.210831
O	      2.23671      6.34735      6.50347        -0.071730      0.110600     -0.063103
O	      4.15849      8.50345      6.53652        -0.105592      0.029616      0.413167
O	      4.19972      6.40851      8.43875        -0.034169      0.048512     -0.051638
O	      6.10647      8.45560      8.58613        -0.014346     -0.053799      0.003726
O	      6.19853      6.39975     10.54221         0.116373     -0.042790      0.064452
O	      8.23007      8.48364     10.68611         0.348201     -0.137696      0.661538
