# total energy = -236.44953204 eV
 
CRYSTAL
PRIMVEC
0.012937 6.323505 6.202733 
6.419364 -0.017752 6.233949 
4.275679 4.232285 -0.008109 
PRIMCOORD
36 1
Li	      4.31462      4.23365      0.21005         0.045582     -0.022624     -0.036156
Li	      6.21980      4.22594      2.15741         0.059470     -0.016342      0.010128
Li	      4.27940      2.28312      2.20289         0.025503     -0.066879      0.022623
Li	      4.27157      6.40456     10.24041        -0.047114      0.036287     -0.000633
Li	      4.33957      6.08489      2.12181         0.052208      0.016388     -0.006100
Li	      2.42771      4.15101      2.08690         0.035780     -0.036182      0.017809
Li	      2.18410      2.07747      4.02788        -0.009799     -0.025615      0.042364
Li	      4.30358      4.16887      3.95098         0.039137     -0.038957      0.116250
Li	      6.34226      6.37464      8.30194        -0.077032      0.019565     -0.043591
Ti	      2.22853      2.10337      0.17875         0.255096     -0.146791      0.441593
Ti	      8.58697      6.20605     10.19824        -0.032581     -0.186603      0.059298
Mn	      6.31640      8.46196      6.26798        -0.079745     -0.023296      0.005353
V	      6.43747      4.21499      6.23583        -0.020652      0.098042     -0.032659
Cr	      6.41131      8.39735     10.34483        -0.111167     -0.003044     -0.053768
Fe	      8.55032      6.25496      6.20385        -0.026031     -0.053725      0.117745
Fe	      4.25542      4.34851      8.29961        -0.062876      0.045319     -0.040542
Co	      6.39964      4.25397     10.24671         0.150621     -0.038824     -0.019731
Co	      4.27880      6.34072      6.22308        -0.169944      0.129374     -0.067978
O	      2.14907      2.09527      1.96413         0.013225      0.025009     -0.362390
O	      4.31522      4.19693      2.08126        -0.013833      0.024375      0.030214
O	      4.40490      2.03176      4.29252         0.037489     -0.011463     -0.129761
O	      6.38848      4.11498      4.37051         0.016658     -0.040111      0.002888
O	      6.46582      2.16289      6.18207         0.037028     -0.052804      0.023022
O	      8.42050      4.16666      6.26572         0.019651     -0.060547      0.029855
O	      2.11840      4.35614      4.14249        -0.130776      0.224458     -0.099235
O	      4.11370      6.44831      4.17320        -0.063077     -0.073337      0.379058
O	      4.33819      4.09174      6.28321         0.041644      0.127749     -0.083294
O	      6.49454      6.21842      6.16100        -0.104133     -0.056518      0.019456
O	      6.30631      4.22415      8.14280        -0.035003      0.013199     -0.040046
O	      8.59746      6.36987      8.29463         0.019129      0.026950      0.179929
O	      2.16578      6.48413      6.08470         0.054314      0.044574     -0.125908
O	      4.13390      8.51295      6.10347        -0.172816     -0.050918      0.114884
O	      4.29997      6.25806      8.22129         0.042129      0.083474     -0.467605
O	      6.52272      8.43351      8.34434        -0.024428      0.003084      0.044636
O	      6.59550      6.36136     10.32787         0.115308      0.076204     -0.037441
O	      8.47125      8.38187     10.33922         0.121032      0.010530     -0.010268
