# total energy = -231.75442324 eV
 
CRYSTAL
PRIMVEC
0.019190 6.398652 6.246726 
6.336390 0.031163 6.234396 
4.218205 4.251606 0.027126 
PRIMCOORD
36 1
Li	      4.15873      4.25306      0.14275        -0.053411      0.007818     -0.033602
Li	      2.08868      2.17067      0.14896         0.014488      0.012887     -0.099304
Li	      2.01014      0.15944      2.07861         0.037708      0.051457      0.006240
Li	      4.08806      2.24647      2.11012         0.066803      0.003343     -0.043974
Li	      0.15461      2.03969      2.03361        -0.068692      0.032591     -0.029383
Li	      2.15597      2.12435      4.02170        -0.004844      0.002429      0.055257
Li	      4.29927      2.06969      6.17982         0.064193     -0.042770     -0.024138
Li	      0.05249      4.28270      4.15537         0.022479     -0.000249     -0.002598
Li	      6.29256      8.53540      6.26999        -0.048231     -0.017704      0.047406
Ti	      4.26991      6.59128      6.26408         0.136822      0.664339      0.145010
Ti	      8.42984      8.48469      8.29683         0.070888     -0.187110      0.027297
Mn	      6.31335      2.15781      4.18815         0.080182     -0.024697      0.012019
V	      2.09360      6.30674      4.27478        -0.185447     -0.018141     -0.198888
Cr	      4.22365      4.24357      4.14134         0.095794     -0.050350      0.119940
Fe	      6.45133      4.21937      6.23714        -0.086377      0.089190      0.087717
Fe	      6.36194      6.39831      8.32246         0.010025     -0.069667      0.012903
Cu	      2.24074      4.06034      2.02407        -0.095776      0.383961     -0.015336
Ni	      4.21202      0.09126      4.14389         0.067565     -0.060680     -0.071678
O	      2.10378      2.19566      2.09413        -0.009390     -0.252669      0.030626
O	      4.23288      4.26764      2.20626         0.091132      0.082752     -0.047024
O	      4.34579      2.20329      4.15273        -0.096727      0.063891     -0.041692
O	      6.28559      4.32326      4.24005        -0.082927      0.104882     -0.177133
O	      6.33373      2.24579      6.10514         0.001876     -0.111364      0.061313
O	      8.36726      4.33279      6.16684         0.194067     -0.005762      0.102558
O	      2.21389      4.40333      4.20348        -0.078225     -0.009417      0.044380
O	      4.12056      6.29152      4.31080         0.021350      0.021288      0.073709
O	      4.21433      4.29847      6.31774        -0.019872     -0.003602     -0.092771
O	      6.18089      6.33094      6.27800        -0.114435     -0.020352     -0.235605
O	      6.19772      4.28731      8.24892        -0.122136     -0.120958      0.078515
O	      8.49516      6.51340      8.51397         0.175013      0.071603     -0.035683
O	      2.20504      6.43376      6.09751         0.026015      0.013785      0.273893
O	      4.26953      8.38349      6.26495         0.013249     -0.475936      0.028712
O	      4.18178      6.27194      8.27348        -0.123137     -0.066802     -0.150468
O	      6.48090      8.51051      8.44954        -0.028222      0.044255     -0.072175
O	      6.42569      6.36579     10.39747         0.029432     -0.062533      0.185683
O	      8.38265      8.50499     10.30976        -0.001234     -0.049705     -0.021726
