# total energy = -232.37463676 eV
 
CRYSTAL
PRIMVEC
0.079086 6.426097 6.112083 
6.448506 0.078221 6.110782 
4.343680 4.328746 0.006024 
PRIMCOORD
36 1
Li	      6.41893      6.54938     12.07226         0.011815      0.019191      0.094195
Li	      4.29228      2.17192      2.05504        -0.033092      0.011084     -0.007909
Li	      4.47869      0.16908      4.15605         0.021931      0.038036     -0.027944
Li	      6.48477      8.44981     10.28179        -0.002786      0.059961      0.027740
Li	      2.22253      2.16468      4.07943         0.016389     -0.015466     -0.028690
Li	      8.68986      6.37170      6.08724        -0.027985     -0.040758      0.030275
Li	      6.60120      4.36542      6.09692         0.040533     -0.028034     -0.049578
Li	      6.50189      4.53278     10.19604        -0.025054      0.038441     -0.012953
Li	      8.51795      6.49736     10.19069         0.002846     -0.007971     -0.021825
Ti	      4.30336      4.18122      4.10609        -0.001959     -0.302956     -0.017507
Ti	      8.71568      8.63677      8.34842         0.117532     -0.113055      0.289189
Mn	      6.43428      8.65127      6.05121        -0.000391      0.017423      0.009303
V	      6.52144      4.35352      2.13250        -0.112525      0.158045      0.078718
Cr	      8.61120      2.28755      6.08238        -0.047556      0.023396     -0.032707
Fe	      6.46994      2.24677      8.11466         0.034599     -0.038606      0.134759
Fe	      4.44091      6.51561      6.01264        -0.144991     -0.012127      0.052733
Cu	      8.63408      4.40586      8.10655         0.063967      0.017775      0.063390
Cu	      6.56619      6.44072      8.21763         0.035629     -0.045840     -0.098542
O	      2.11298      2.06033      1.99168         0.063448     -0.098097      0.005366
O	      4.47941      4.39429      2.10020         0.089525     -0.060583      0.092650
O	      4.33359      2.34803      4.08678         0.032815      0.246037      0.026212
O	      6.38896      4.39315      3.93481        -0.050381     -0.033008      0.110141
O	      6.59804      2.22554      6.18867         0.029709     -0.038338     -0.172927
O	      8.63737      4.28116      6.19208         0.033835     -0.012676     -0.169289
O	      2.34883      4.31683      3.94964         0.024211     -0.003799      0.176527
O	      4.39806      6.33166      4.05614        -0.010192     -0.020448     -0.065646
O	      4.33248      4.43853      6.04303        -0.031046     -0.039018     -0.051808
O	      6.39975      6.51670      6.25724         0.086135      0.009512     -0.061586
O	      6.33049      4.28128      8.18216        -0.267939     -0.004029     -0.021793
O	      8.76269      6.69775      8.10615         0.010627      0.241087      0.023699
O	      2.29618      6.53410      6.22924         0.021140     -0.011570     -0.082987
O	      4.30288      8.49680      6.10631        -0.002500      0.107473     -0.034931
O	      4.23047      6.34638      8.12412         0.004882      0.007845      0.027568
O	      6.70531      8.80947      8.13652         0.001043     -0.043011     -0.030663
O	      6.54090      6.49230     10.09488         0.004274      0.018552      0.062744
O	      8.67396      8.68364     10.17006         0.011512     -0.044465     -0.315923
