# total energy = -231.82363367 eV
 
CRYSTAL
PRIMVEC
0.022311 6.247540 6.387871 
6.232309 0.044982 6.364884 
4.181788 4.176309 0.003358 
PRIMCOORD
36 1
Li	      2.14043      8.24688      6.44028         0.019015      0.010029      0.051954
Li	      6.33478     10.31477      8.47994        -0.009395     -0.011395      0.008802
Li	      4.33286      8.30519      8.49697        -0.056201      0.032869     -0.019658
Li	      6.30397      8.37983     10.41072         0.018681      0.033747      0.041888
Li	      4.18608      6.24477      2.13252         0.013708      0.012326     -0.040632
Li	      2.10373      2.07985      4.20671         0.022457     -0.006417     -0.042957
Li	      8.29283      6.31830     10.64104        -0.041229      0.011446      0.069086
Li	      6.25857      8.42996      6.60126        -0.029528      0.030416      0.001349
Li	      8.15365      8.40885      8.54024         0.044673      0.018415      0.018362
Ti	      2.11855      4.05275      2.22119         0.072814     -0.616865      0.068436
Ti	      4.10340      8.24485      4.28352        -0.222082     -0.093426      0.093903
Mn	      0.14376      6.25947      6.41297         0.015664      0.017845     -0.004649
V	      8.30064      6.34656      6.39485        -0.006420      0.056586     -0.077984
Cr	      4.14907      6.30555     10.52702        -0.069536      0.033117     -0.000233
Fe	      4.29933      4.20109      4.20483        -0.075422      0.035163      0.022257
Fe	      6.27100      4.15169      6.39563         0.052319     -0.074250      0.061255
Ni	      4.07630      6.28393      6.48848         0.049351     -0.027747      0.015650
Ni	      6.24691      6.39283      8.53394        -0.013308     -0.090538     -0.020276
O	      2.07218      2.24598      2.05330         0.017745      0.624271      0.049757
O	      4.09429      4.21378      2.23062        -0.163704      0.018646     -0.047263
O	      4.14098      2.12704      4.38083         0.029363     -0.016593      0.046565
O	      6.26599      4.22064      4.26420         0.103600     -0.009868     -0.074137
O	      6.07577      2.12012      6.38741        -0.063686     -0.190091      0.029531
O	      8.48582      4.28942      6.34027         0.034215      0.004978     -0.005588
O	      2.07250      4.18360      4.11474        -0.010170     -0.007342     -0.201081
O	      4.16431      6.29821      4.36227        -0.008472      0.138557     -0.118018
O	      4.14233      4.15405      6.24230        -0.062023     -0.074143      0.043751
O	      6.39918      6.18975      6.42083         0.067131      0.137731     -0.079002
O	      6.34478      4.21930      8.61264         0.113057     -0.079469      0.120927
O	      8.31404      6.20847      8.34177         0.119429     -0.050625      0.026273
O	      2.00843      6.30165      6.37447        -0.065921     -0.049583      0.004453
O	      4.24423      8.34623      6.22214        -0.024054      0.157120     -0.146279
O	      4.19690      6.29420      8.53948        -0.127737     -0.043286      0.073094
O	      6.25982      8.34526      8.51279         0.001068      0.138871     -0.006606
O	      6.17529      6.17135     10.63213         0.004289     -0.050556      0.027230
O	      8.45760      8.45994     10.60461         0.250309     -0.019939      0.009840
