# total energy = -239.10042814 eV
 
CRYSTAL
PRIMVEC
0.030430 6.352978 6.276473 
6.338483 0.030486 6.276640 
4.244372 4.254270 0.001562 
PRIMCOORD
36 1
Li	      6.32643      4.30376      2.15411        -0.012561      0.055369     -0.011028
Li	      4.22535      2.14100      2.18140         0.014363     -0.035568      0.000419
Li	      4.20421      0.07807      4.12304         0.008131      0.037093     -0.039722
Li	      4.25916      6.34521      2.14629         0.012842     -0.023703     -0.017556
Li	      2.14411      4.25272      2.13679        -0.016622      0.017620      0.002883
Li	      2.16813      2.13623      4.06875         0.056289      0.014614     -0.068711
Li	      4.23462      2.14215      6.26548        -0.007386     -0.011988     -0.020672
Li	      6.37232      4.23054     10.39460        -0.002985     -0.012177     -0.015544
Li	      8.49126      8.48715      8.42416        -0.005385     -0.009117      0.055465
Ti	      2.18303      2.15096      0.13966        -0.053392      0.110099      0.386575
Ti	      6.36126      4.31429      6.30758         0.229466      0.054078      0.109281
Mn	      6.36194      6.35634      8.41100         0.033887      0.113876      0.060010
V	      4.27256      6.36979      6.28985        -0.019359      0.100622      0.199611
Cr	      6.34149      2.16221      4.16532        -0.007149     -0.040882     -0.058264
Fe	      4.21579      4.19516      4.01533        -0.005628     -0.050727     -0.041092
Fe	      8.49485      6.40130     10.38511        -0.128926     -0.019233      0.063726
Fe	      6.39199      8.48830      6.32263        -0.040267     -0.043758      0.089114
Co	      4.18766      4.26374      0.10132        -0.016434      0.073087      0.075740
O	      2.10766      2.11261      1.95782         0.031831      0.029178     -0.395445
O	      4.22939      4.28296      2.09118        -0.016528     -0.022872     -0.047827
O	      4.33805      2.22665      4.18558        -0.003825     -0.005051      0.025018
O	      6.30090      4.19124      4.24533         0.025960     -0.026056      0.048673
O	      6.42632      2.25351      6.22505         0.052309      0.118907      0.009180
O	      8.36317      4.15523      6.24732        -0.102874     -0.113555      0.003822
O	      2.19588      4.31346      4.27474        -0.046703      0.006099     -0.091838
O	      4.16420      6.31139      4.24417         0.100323      0.026610      0.058741
O	      4.36409      4.31675      6.22228         0.110404      0.161207     -0.018524
O	      6.36443      6.26592      6.17531         0.020853     -0.269920      0.005561
O	      6.34580      4.34385      8.22497        -0.026375     -0.027919     -0.187451
O	      8.32995      6.37658      8.44670        -0.025055     -0.022277     -0.111143
O	      2.16585      6.44916      6.27789        -0.026969      0.137117     -0.009905
O	      4.16222      8.44666      6.23605        -0.078261     -0.196151      0.021243
O	      4.41492      6.37236      8.25822        -0.037049     -0.061539     -0.201128
O	      6.39147      8.37036      8.38761         0.012470     -0.064705      0.088271
O	      6.42279      6.47736     10.58839        -0.058913      0.013764     -0.013199
O	      8.40830      8.43193     10.55786         0.029516     -0.012144      0.045717
