# total energy = -234.42235049 eV
 
CRYSTAL
PRIMVEC
0.060550 6.382892 6.189797 
6.417610 0.066046 6.184566 
4.316739 4.290162 0.005392 
PRIMCOORD
36 1
Li	      4.35853      4.25657      0.17250         0.041705     -0.023306     -0.117481
Li	      6.20453      4.24945      2.05512         0.009112     -0.158158     -0.099269
Li	      4.36626      2.41052      2.03139         0.162666     -0.030565     -0.100264
Li	      4.24348      6.17701      2.10582        -0.131552      0.044092     -0.100676
Li	      2.42626      4.35884      2.09630        -0.031642      0.102132     -0.080152
Li	      4.27835      4.33066      3.92009         0.008501     -0.008474      0.098305
Li	      8.62387      6.44492     10.18787        -0.079183      0.080060     -0.025838
Li	      8.57576      8.50476      8.28637        -0.093359     -0.045606      0.001169
Li	      6.55398      6.50642      8.29361         0.042736      0.081830      0.024510
Ti	      6.46922      4.27111      6.35987         0.132510     -0.315433      0.583346
Ti	      4.22625      6.45723      6.34974        -0.575781      0.288082      0.581801
Mn	      6.52094      8.53058     10.18595         0.107175     -0.124263     -0.057156
V	      2.14018      2.15117      3.95444        -0.176000      0.119667     -0.115810
Cr	      4.34651      6.42015     10.24619         0.202152     -0.177318     -0.121837
Fe	      8.60747      6.47400      6.32729         0.093393     -0.020354     -0.036542
Fe	      6.44614      4.35394     10.24407        -0.211800      0.224806      0.042700
Fe	      6.52140      8.59237      6.27030        -0.013717      0.100788      0.147857
Cu	      2.16231      2.11592      0.08579        -0.107766      0.001663      0.139122
O	      2.15251      2.15583      2.22641         0.005348     -0.000795      0.577652
O	      4.31393      4.29856      2.04946        -0.032268      0.024317      0.132476
O	      4.18065      2.07558      4.24157        -0.681959      0.115007     -0.133992
O	      6.56961      4.41175      4.18601        -0.111342      0.715240     -0.076759
O	      6.35575      2.34397      6.11590        -0.217276      0.271901      0.103896
O	      8.45737      4.34931      6.11349        -0.171128      0.298701     -0.107020
O	      2.08407      4.14892      4.23629         0.216510     -0.738051     -0.426909
O	      4.46817      6.51404      4.22984         0.723243     -0.260372     -0.189665
O	      4.45602      4.37836      6.15640         0.230865      0.028060     -0.088504
O	      6.44152      6.32072      6.12814        -0.045328     -0.161368     -0.200164
O	      6.49530      4.31148      8.19550         0.014496     -0.029966     -0.347311
O	      8.60044      6.46773      8.15468         0.046072     -0.044263      0.277034
O	      2.34705      6.44225      6.14730         0.476760     -0.180721     -0.060865
O	      4.34605      8.40962      6.15768         0.206941     -0.212548     -0.223979
O	      4.35734      6.43953      8.19444        -0.012068      0.020138     -0.209127
O	      6.51020      8.56016      8.18578        -0.027585      0.019654      0.247344
O	      6.36794      6.35653     10.32391        -0.095675     -0.084207      0.030701
O	      8.72975      8.70013     10.25381         0.095244      0.079629     -0.068593
