# total energy = -223.96464304 eV
 
CRYSTAL
PRIMVEC
-0.012855 6.153587 6.242571 
6.309861 -0.023019 6.252223 
4.209618 4.112259 -0.018197 
PRIMCOORD
36 1
Li	      6.32515      6.24665     12.31748         0.032066      0.040683     -0.002149
Li	      8.33862      8.15558     12.39656         0.002356     -0.002387     -0.039271
Li	      6.44291      8.04882     10.36753         0.019318      0.037471     -0.002042
Li	     10.46743      6.14131      8.29312        -0.022512     -0.014654      0.008937
Li	      2.08046      2.04384      4.09559        -0.009653     -0.007278      0.007030
Li	      8.45383      6.10137      6.34341         0.014786      0.029490      0.002324
Li	      8.27480      6.25473     10.32243        -0.009992     -0.013429      0.048156
Li	      8.29695      8.08614      8.50009        -0.090151     -0.033692     -0.069601
Li	      6.40331      6.19750      8.46390        -0.004094     -0.014814     -0.041696
Ti	      6.36624      3.94585      6.24712         0.125765     -0.456060      0.047053
Ti	      4.19218      6.20825      6.29842        -0.025520      0.074844     -0.001658
Mn	      8.40801      4.11628      8.31274         0.001485      0.056300      0.005687
V	      4.20541      4.03513      4.13531         0.048165      0.057458      0.072526
Cr	      6.31701      8.18461      6.25768         0.036456     -0.012940     -0.006382
Ni	      2.08651      0.05790      2.09262        -0.078774      0.025929      0.026551
Ni	      4.26657      6.09975     10.35827        -0.095514      0.161692      0.060031
Ni	      6.22312      4.13802     10.34508         0.086042     -0.148119     -0.019152
Ni	      4.20842      2.07343      2.07306         0.049333      0.009115     -0.016667
O	      2.17975      2.14259      2.06147        -0.127909      0.114933     -0.015447
O	      4.11987      4.13686      2.17603        -0.072728      0.084810     -0.120846
O	      4.21299      2.21061      4.17074        -0.038150     -0.054015      0.079886
O	      6.25681      4.14048      4.23743        -0.057255     -0.003790      0.138194
O	      6.28513      2.15472      6.23377         0.012452      0.479705      0.026047
O	      8.29258      4.10933      6.33634        -0.107791     -0.016906      0.081480
O	      2.18516      4.07766      4.10413         0.010812     -0.028207      0.002381
O	      4.20133      5.98514      4.30133         0.036957      0.018216      0.076065
O	      4.20871      4.12161      6.20376         0.015895      0.056928      0.043975
O	      6.15782      6.14329      6.26068        -0.105237     -0.002687      0.025885
O	      6.47102      4.05604      8.24560         0.002863     -0.008435     -0.115205
O	      8.42704      5.97185      8.31978        -0.006301     -0.033787      0.020121
O	      2.21190      6.07765      6.28087         0.112983     -0.011484     -0.151560
O	      4.31682      8.13250      6.17628         0.006242     -0.193052      0.057244
O	      4.12348      6.17651      8.25604         0.115328     -0.095452     -0.221560
O	      6.23523      8.27844      8.19922         0.122484     -0.106568     -0.002313
O	      6.23071      6.11826     10.41600         0.194599      0.140895     -0.045681
O	      8.45788      8.23061     10.38719        -0.194807     -0.130713      0.041659
