# total energy = -91.29105718 eV
 
CRYSTAL
PRIMVEC
0.000741 2.088596 2.092635 
6.129382 0.039511 -2.128859 
-2.029835 6.411329 -4.326399 
PRIMCOORD
16 1
Li	      2.04827      2.25291     -0.16912        -0.014520     -0.050105      0.063694
Li	      3.95868      2.06065     -2.06090         0.052175     -0.009168      0.017176
Li	      0.13392      4.33351     -0.15279        -0.052183      0.005427     -0.017196
Li	      2.04469      4.14040     -2.04458         0.014981      0.052419     -0.067337
Mn	      0.02472      0.04372     -0.04007        -0.000843      0.038046     -0.059667
Mn	      4.06707      4.26149     -4.26667        -0.000201     -0.037209      0.057170
Ni	      0.08368      6.34377     -2.16973         0.055266     -0.019682      0.031867
Ni	      1.97898      6.46116     -4.37105        -0.053683      0.021482     -0.029543
O	     -0.14642      4.30629     -2.22322        -0.038077     -0.120058      0.130499
O	      0.01340      1.94477      0.14961        -0.004174     -0.014251      0.020509
O	      4.09605      6.42191     -4.33449        -0.000909      0.000740     -0.000267
O	      4.07925      4.44905     -2.36361         0.005652      0.010875     -0.019986
O	     -0.06160      6.31313     -4.22954        -0.168193      0.117273     -0.093833
O	      4.23898      2.08740      0.00892         0.036741      0.122915     -0.129399
O	      2.12428      6.49201     -2.31117         0.169607     -0.119693      0.096810
O	      2.04602      2.15238     -2.15317        -0.001638      0.000989     -0.000499
