# total energy = -136.18867913 eV
 
CRYSTAL
PRIMVEC
2.081773 2.081671 3.948408 
-6.291184 6.290953 0.000030 
-2.081778 -2.081710 3.948377 
PRIMCOORD
24 1
Li	     -5.25458      3.17481      4.93431         0.037919     -0.042774      0.000380
Li	     -3.17379      5.25636      4.93423         0.040267     -0.042493      0.001186
Li	     -3.14884      1.06584      4.93426        -0.022506      0.022920     -0.000394
Li	     -1.06775      3.14730      4.93432        -0.021052      0.023815     -0.000522
Li	     -7.30052      5.21679      4.93432        -0.018246      0.018721     -0.000943
Li	     -5.21945      7.29844      4.93428        -0.016139      0.018992     -0.000585
Mn	     -1.04392      1.04199      6.90853         0.021328     -0.019396     -0.000250
Mn	     -1.04529      1.04328      2.95999         0.008810     -0.006317      0.000306
Mn	     -3.18120      3.18091      2.96005        -0.010622      0.009754     -0.000383
Ni	     -3.15463      3.15434      6.90861         0.011151     -0.012198     -0.000451
Ni	     -5.19772      5.19760      6.90852        -0.014415      0.012770     -0.000245
Ni	     -5.23272      5.23236      2.96000        -0.003786      0.001720      0.000232
O	     -3.13165      5.16971      2.96011        -0.037289     -0.109303     -0.000028
O	     -5.16981      3.13156      2.96002         0.108286      0.036509      0.000609
O	     -1.03725      3.06015      2.96014        -0.054355     -0.158333      0.000169
O	     -3.06171      1.03560      2.96005         0.159604      0.055006      0.000376
O	      0.91951      1.09952      2.96005        -0.138052      0.011101     -0.001045
O	     -1.10140     -0.92166      2.96000        -0.010697      0.139239      0.001348
O	     -5.25616      5.25530      4.96755        -0.001735      0.001869     -0.055071
O	     -5.25621      5.25529      0.95257        -0.001471      0.002077      0.056995
O	     -3.13165      3.13122      4.85556         0.005843     -0.007458     -0.094556
O	     -3.13159      3.13111      1.06466         0.006706     -0.006457      0.094216
O	     -1.06109      1.05910      4.94365        -0.025358      0.024933     -0.056922
O	     -1.06119      1.05910      0.97657        -0.024192      0.025304      0.055576
