# total energy = -228.36315919 eV
 
CRYSTAL
PRIMVEC
0.026202 6.375542 6.182304 
6.380976 0.060211 6.148531 
4.282225 4.256145 0.011833 
PRIMCOORD
36 1
Li	      0.11519      6.37254      6.23035        -0.001363     -0.052580     -0.055551
Li	      2.07219      2.06411      0.10661         0.038408     -0.035021     -0.017879
Li	      6.33043     10.55786      8.22600         0.003588     -0.132921      0.020844
Li	      4.25688      2.27242      2.07501        -0.003434     -0.031917     -0.068018
Li	      6.47442      8.51372     10.17428         0.053334     -0.020137      0.006013
Li	      4.36744      6.33746      2.14440         0.002072      0.025662      0.027798
Li	      6.40152      4.30976     10.17756        -0.050194      0.004118      0.068343
Li	      8.54050      6.48243     10.30339         0.032951      0.071770      0.006913
Li	      8.46529      8.52675      8.29980        -0.060888      0.018705      0.048579
Ti	      8.59351     10.50376     10.23446         0.175932     -0.840439     -0.218826
Ti	      4.49791      2.16110      6.16509         0.398392     -0.126488     -0.060133
V	      4.18281      6.55945      6.16453         0.283888      0.689823      0.198303
Cr	      2.11063      2.17800      4.05631        -0.106411     -0.014996      0.048791
Fe	      6.39056      4.24451      6.20523         0.033228      0.036670     -0.093333
Fe	      6.44652      6.48801      8.27467        -0.147137     -0.034053     -0.035669
Co	      2.17517      4.24760      2.06005        -0.093027      0.000787      0.061626
Cu	      4.23760      4.29777      4.02702         0.138491      0.033329      0.009996
Ni	      2.14086      4.31974      6.18400        -0.193863      0.008353     -0.014232
O	      2.12017      2.32205      2.11239         0.004142      0.120617     -0.030839
O	      4.12452      4.26931      2.13087        -0.058301      0.075462     -0.088206
O	      4.14660      2.04740      4.22939         0.074202     -0.193901      0.199405
O	      6.52583      4.38838      4.11492         0.162288      0.016328     -0.029773
O	      6.30977      2.13313      6.13537        -0.502939     -0.037741      0.055340
O	      8.58264      4.42448      6.16024         0.041960      0.155604      0.019518
O	      2.14155      4.18804      4.03905        -0.105360      0.032724     -0.147693
O	      4.36450      6.43559      4.25371         0.035306      0.010849     -0.326001
O	      4.23746      4.20889      6.07003         0.027551     -0.098056      0.082216
O	      6.32054      6.45235      6.16341         0.127904     -0.130772     -0.137330
O	      6.57446      4.41634      8.17763         0.157617     -0.019736      0.107392
O	      8.48182      6.35922      8.11849         0.118446     -0.075372     -0.183657
O	      2.32918      6.34504      6.18502        -0.364167     -0.038278      0.006770
O	      4.32866      8.34196      6.20490        -0.036359     -0.196999      0.047519
O	      4.33449      6.34116      8.23022         0.026073     -0.000848      0.370160
O	      6.43189      8.42635      8.20026        -0.010581      0.021366      0.088586
O	      6.24305      6.42687     10.23819        -0.203724     -0.010629      0.063664
O	      8.51680      8.67786     10.32301         0.001976      0.768718     -0.030636
