# total energy = -227.73028231 eV
 
CRYSTAL
PRIMVEC
0.026619 6.138878 6.440881 
6.291884 0.010695 6.457484 
4.214491 4.122842 -0.012753 
PRIMCOORD
36 1
Li	      6.32106      6.24374     12.67804        -0.011590     -0.065969     -0.036622
Li	      4.47221      6.11401     10.76941        -0.018150     -0.022128      0.026441
Li	      6.34556      8.01326     10.87935         0.068422     -0.044955      0.006231
Li	      6.31588      2.06587      8.47230        -0.053375     -0.023028     -0.002437
Li	      4.23743      1.99903      6.41479        -0.017595      0.020444      0.000909
Li	      6.30083      4.25373     10.80698        -0.032021     -0.153650      0.054607
Li	      8.21112      6.19051     10.84317         0.098908      0.039463      0.029429
Li	      4.20700      6.21501      6.42807        -0.011462      0.002062     -0.018201
Li	      6.31573      6.15025      8.89205         0.032926      0.012750      0.013659
Ti	      4.16699      4.29706      4.36142        -0.097099      0.742058      0.021098
Ti	      8.49155      8.11794      8.72166         0.023531     -0.157973      0.626522
V	      4.28361      8.13350      8.65479         0.047756     -0.054594     -0.131179
Cr	      6.31617      4.10777      6.37416         0.040284      0.095190      0.063514
Fe	      2.13334      6.14552      8.54519        -0.099023      0.064393      0.072299
Fe	      8.35013      4.24070      8.55677        -0.000742     -0.029448      0.068407
Co	      6.26441      8.18951      6.39838        -0.011619      0.003748      0.038954
Cu	      8.39691      8.18011     12.84685         0.127640     -0.008701     -0.045338
Cu	      6.31878      6.17955      4.32145        -0.113510      0.048949      0.085550
O	      6.33715      6.11520     10.78253         0.021007     -0.040983      0.008387
O	      2.20567      2.06480      2.33762        -0.004707      0.022179     -0.043957
O	      4.19975      4.06384      2.29630         0.048651      0.019428     -0.008875
O	      4.32490      2.08436      4.03472         0.127361      0.075961      0.036647
O	      6.18887      4.11881      4.27699        -0.064730     -0.074006      0.002359
O	      6.40805      2.14364      6.43674        -0.100255      0.082752     -0.051245
O	      8.33137      4.05746      6.60424        -0.039099      0.085456     -0.107129
O	      2.19677      4.08081      4.19628         0.100685      0.001842     -0.045630
O	      4.10077      6.10032      4.28123        -0.132949     -0.764128      0.078752
O	      4.25126      4.08465      6.31434        -0.003684     -0.018246     -0.118922
O	      6.32541      6.15526      6.24380         0.012732     -0.009665      0.220322
O	      6.24558      4.13519      8.42565        -0.083568     -0.023216     -0.023760
O	      8.42223      6.21550      8.50043        -0.008509      0.240893     -0.003992
O	      2.09027      6.17008      6.61134         0.011936     -0.080394     -0.135699
O	      4.15952      8.20821      6.75458         0.059265     -0.022274      0.004363
O	      4.14022      6.10301      8.59989         0.083381      0.027751      0.001718
O	      6.37228      8.23981      8.50224         0.054938     -0.023108     -0.030859
O	      8.47887      8.18993     10.49149        -0.055735      0.031147     -0.656323
