# total energy = -233.28544950 eV
 
CRYSTAL
PRIMVEC
0.008668 6.266945 6.286405 
6.393352 0.038297 6.256846 
4.285748 4.182475 0.001510 
PRIMCOORD
36 1
Li	      6.43643     10.40028      8.38174         0.003573     -0.015474      0.024058
Li	      8.48312      4.28482      8.35789        -0.018082     -0.007069      0.091939
Li	      4.21475      4.23443      4.27008        -0.067184      0.015005     -0.034004
Li	      6.30004      4.26497      6.38855         0.006965      0.000360     -0.069493
Li	      2.13932      6.16459      4.10553        -0.033684     -0.098938     -0.034820
Li	      2.29540      4.26314      6.32268        -0.003692      0.018383      0.010730
Li	      4.24255      6.09759      6.33968        -0.037052      0.037509      0.003962
Li	      4.31965      4.17151      8.27871        -0.031663     -0.008715      0.044703
Li	      6.43954      6.24376      8.35152         0.009271      0.074024      0.103658
Ti	      2.15248      8.21730      6.30738         0.209075     -0.566454      0.023395
Ti	      6.32235      6.35227      4.31281        -0.278648      0.326451      0.150844
V	      4.24563      6.28605     10.39150        -0.007083     -0.024259     -0.136595
Cr	     10.67056      6.31540      8.35017        -0.034152     -0.026923      0.135007
Fe	      4.43245      8.47845      8.33156        -0.057558     -0.125430     -0.060455
Fe	      4.23390      2.26568      6.37274        -0.042703     -0.102994     -0.045477
Co	      6.40236      8.42112     10.39464         0.237428      0.200339      0.161535
Co	      6.47426      4.22111     10.36687        -0.400501      0.029416      0.126708
Co	      4.29636     10.43729      6.28567         0.090355     -0.059134     -0.148440
O	      2.08848      2.10025      2.00801         0.038400      0.024428     -0.124787
O	      4.28583      4.17462      2.02326        -0.022734      0.120481      0.079909
O	      4.15049      2.07155      4.14191         0.106270     -0.007519      0.047203
O	      6.55056      4.27523      4.15903         0.121456      0.100934      0.023545
O	      6.44955      2.18886      6.28644         0.051882     -0.100838      0.088289
O	      8.58091      4.24310      6.08365        -0.048729     -0.052960      0.042003
O	      2.12466      4.05043      4.19147        -0.008827     -0.271789     -0.081693
O	      4.42358      6.20306      4.10925         0.121858      0.005111     -0.038820
O	      4.26911      4.12931      6.26654         0.076041      0.093311     -0.001741
O	      6.48493      6.27743      6.16364        -0.014096     -0.031165     -0.145370
O	      6.39388      4.11222      8.40860         0.174612      0.003115      0.422923
O	      8.66324      6.27258      8.29104         0.062562     -0.022702      0.088700
O	      2.10949      6.36273      6.22919         0.002636      0.659753     -0.002454
O	      4.09422      8.28068      6.34384         0.034987      0.127720     -0.234925
O	      4.31008      6.37373      8.56622        -0.090446     -0.027302     -0.043013
O	      6.33006      8.40100      8.38898        -0.072561     -0.026657     -0.229583
O	      6.28920      6.35928     10.50283        -0.025000     -0.229802     -0.130334
O	      8.56355      8.49273     10.59058        -0.052975     -0.030217     -0.107108
