# total energy = -232.97397116 eV
 
CRYSTAL
PRIMVEC
-0.014247 6.411630 6.180442 
6.296860 -0.010310 6.176212 
4.186646 4.260455 0.004635 
PRIMCOORD
36 1
Li	     10.44605      4.24770      6.20160        -0.026805     -0.061989     -0.004599
Li	      4.25333      0.07944      4.10991         0.033997      0.024144      0.018477
Li	      6.19853      2.07454      4.13750         0.023991     -0.023665     -0.020731
Li	      8.43330      4.28688      8.20487         0.019673      0.015419      0.002415
Li	      2.15163      2.17444      4.12699         0.001513      0.020282     -0.044417
Li	      4.14687      4.19797      4.12067        -0.048079     -0.029328      0.000414
Li	      6.31479      8.45439      6.19797         0.029209     -0.040206     -0.028210
Li	      4.19044      6.41465      6.17411        -0.029883      0.015325      0.002368
Li	      6.29816      6.40066      8.22071         0.025981     -0.017093     -0.007628
Ti	      6.28409      4.38238      5.97665         0.083197      0.118569     -0.093653
Ti	      0.10085      4.31397      4.16923         0.152646     -0.097063      0.088122
V	      4.16624      4.31899      8.23148        -0.239593      0.007284     -0.067658
Cr	      6.26819      4.24844      2.06855         0.212006     -0.279289      0.014241
Fe	      8.33919      2.12982      6.17724        -0.101901     -0.056913      0.036720
Fe	      4.23429      2.12567      2.17889         0.081755     -0.130104     -0.319825
Fe	      2.08058      6.37205      4.16902         0.176164      0.034896     -0.143663
Co	      4.16968      6.34878      2.08251        -0.002604     -0.051948      0.040394
Cu	      4.22412      2.10096      6.10055         0.036334     -0.025404     -0.017898
O	      2.14979      2.01006      2.01073        -0.020171      0.066893      0.118017
O	      4.25744      4.16481      2.06329        -0.084332      0.189467      0.032133
O	      4.20982      2.10373      4.06248        -0.000104      0.021125      0.224337
O	      6.25718      4.27835      4.13593        -0.013997     -0.004619      0.183884
O	      6.25124      2.21869      6.17912         0.048558      0.053836     -0.003750
O	      8.22131      4.07698      6.21054        -0.018128     -0.015459     -0.031523
O	      1.98826      4.33439      4.14270        -0.068355     -0.053275      0.000394
O	      4.09959      6.54619      4.12030         0.017969      0.074581      0.038797
O	      4.34786      4.35608      6.24851        -0.039470      0.102726      0.104082
O	      6.43540      6.25237      6.15987        -0.191772     -0.032896      0.026588
O	      6.20650      4.25650      8.30766         0.054798      0.021377      0.001121
O	      8.38341      6.51108      8.29088        -0.040828      0.032763     -0.047421
O	      2.04779      6.51683      6.18991        -0.037283     -0.001256      0.047527
O	      4.09439      8.52585      6.11451         0.062128     -0.004113      0.014020
O	      4.09644      6.41422      8.25305         0.107848      0.071431      0.001134
O	      6.27489      8.62875      8.21066        -0.058463     -0.071697      0.004155
O	      6.35435      6.22755     10.30284        -0.131097     -0.018232      0.012122
O	      8.42010      8.45267     10.30813        -0.014903      0.144432     -0.180484
