# total energy = -234.88417993 eV
 
CRYSTAL
PRIMVEC
0.040192 6.361827 6.144683 
6.380376 0.038424 6.146518 
4.283886 4.272670 -0.004604 
PRIMCOORD
36 1
Li	      6.52873      6.42905     12.19324         0.050514     -0.000779     -0.085462
Li	      2.17951      6.37409      8.18543         0.063634     -0.026382      0.012211
Li	      6.40851      2.23567      4.20399         0.024841      0.048779     -0.010361
Li	      4.35150      4.25508      4.22121         0.031652     -0.002881      0.023207
Li	      4.31815      2.27097      6.05409        -0.017380      0.100075     -0.022327
Li	      6.31367      4.21215      6.06634        -0.060137     -0.008949      0.009636
Li	      4.30021      8.50435      4.16341        -0.020467      0.010168      0.020189
Li	      2.15359      6.39253      4.19973        -0.032792      0.014691     -0.049768
Li	      2.23242      4.34260      6.06058         0.072039      0.020801     -0.033184
Ti	      4.42033      8.61715      8.17232         0.349311     -0.048322      0.020512
Ti	      6.39594      6.36910      8.23007        -0.225438      0.082190      0.310318
V	      8.53644      4.31299      8.19921         0.071780     -0.060818      0.060513
Cr	      8.53672      8.47388     12.24144         0.053969     -0.110426     -0.099199
Fe	     10.61901      6.44753      8.16931        -0.004297     -0.158272      0.057566
Fe	      6.38935      6.30242      4.22577         0.054094      0.009548     -0.058314
Fe	      8.53975      8.52949      8.19874        -0.190048      0.178291      0.057600
Co	      8.51098      4.28088      4.17297         0.038253      0.041322      0.026604
Co	      4.24018      6.29637      6.06346        -0.039021     -0.090165      0.108552
O	      2.17823      2.19489      2.01004        -0.058684      0.073697     -0.007815
O	      4.20202      4.19255      2.04571        -0.086728     -0.046563     -0.027260
O	      4.15561      2.11119      3.98739         0.057083      0.057009     -0.161538
O	      6.45278      4.38176      4.09450        -0.062308     -0.106189     -0.004006
O	      6.47474      2.13481      6.26356         0.005642      0.009308     -0.031779
O	      8.54448      4.18236      6.32203        -0.041306      0.024807      0.032123
O	      2.14108      4.13037      3.89256        -0.016677      0.091371     -0.127761
O	      4.38772      6.38888      3.93492        -0.085122      0.004382     -0.052588
O	      4.25686      4.28440      6.24080         0.023529      0.067996     -0.279475
O	      6.38176      6.44484      6.19392         0.021740     -0.008604      0.145116
O	      6.48665      4.35695      8.18014         0.221842      0.032662     -0.002328
O	      8.51751      6.31309      8.18402        -0.017072     -0.234518     -0.006676
O	      2.20997      6.45897      6.13201        -0.024600      0.050770      0.025067
O	      4.20307      8.46754      6.24132        -0.046901      0.051846      0.158142
O	      4.42890      6.51248      8.19058         0.197409      0.125397      0.100016
O	      6.30492      8.45174      8.19250        -0.398707     -0.096814     -0.006480
O	      6.39644      6.40697     10.09729         0.058249     -0.034103     -0.368189
O	      8.54498      8.58905     10.22304         0.032101     -0.061324      0.267136
