# total energy = -228.40981151 eV
 
CRYSTAL
PRIMVEC
0.014502 6.286697 6.270576 
6.318046 0.016288 6.268857 
4.216274 4.194382 0.006569 
PRIMCOORD
36 1
Li	     10.41314      4.19913      6.24540        -0.076187     -0.016095      0.006042
Li	      8.44366      2.20534      6.23818         0.039465     -0.007900     -0.020159
Li	      2.10406      4.21355      2.12741         0.005869      0.051378      0.028168
Li	      2.09842      2.28735      4.29515        -0.023425      0.036409      0.015141
Li	      4.05297      4.19740      4.30564        -0.030452      0.033313      0.056430
Li	      8.37863      6.22014      6.23555        -0.024256     -0.101036      0.024606
Li	      6.39155      4.25521      6.22905         0.023356      0.054344     -0.046334
Li	      0.18193      4.16368      4.23845         0.010393     -0.018350      0.012062
Li	      2.15608      4.14710      6.06465        -0.015511      0.008816      0.047484
Ti	      4.13438      2.24243      2.02848         0.035709      0.047586     -0.392578
Ti	      6.32995      2.18722      8.34192         0.011552      0.157074      0.238335
V	      2.13490      6.29928      8.28529         0.047880     -0.007684     -0.018085
Cr	      8.43273      4.19168      4.30159         0.032185     -0.102710     -0.077645
Fe	      6.30359      2.12607      4.39161         0.064559     -0.052239     -0.134727
Fe	      4.20301      4.20852      8.24672         0.109231     -0.097450      0.222955
Fe	      6.39702      6.22839      8.26946        -0.057336      0.031577      0.203299
Cu	      4.25495      6.26386      6.15229         0.082307      0.029463     -0.061520
Ni	      2.11133      6.19436      4.26557         0.012313      0.098062      0.027588
O	      2.12474      2.02183      2.11376         0.032354      0.164977     -0.030830
O	      4.26349      4.14857      2.04769        -0.125996     -0.160107     -0.024091
O	      4.29275      2.03774      4.08534        -0.033772     -0.020350     -0.065314
O	      6.40542      4.09989      4.09092         0.037705      0.023880     -0.060930
O	      6.32983      2.08223      6.35926        -0.011836     -0.020559      0.170482
O	      8.43608      4.19752      6.20859        -0.029616     -0.007584      0.049146
O	      2.09675      4.23067      4.15524         0.040175     -0.122919     -0.038519
O	      4.19442      6.25757      3.93189         0.091259     -0.003835     -0.457383
O	      4.21024      4.28351      6.38498        -0.001630      0.030989     -0.230946
O	      6.26047      6.29430      6.41297        -0.023624     -0.012264     -0.190083
O	      6.26083      4.14134      8.35814         0.030989     -0.210760     -0.026444
O	      8.46630      6.37442      8.35877         0.099941     -0.049501     -0.070861
O	      2.25302      6.28402      6.36277        -0.097653     -0.001156      0.086351
O	      4.22403      8.28680      6.47104         0.002174      0.103622      0.440729
O	      4.26572      6.33118      8.51762        -0.097955      0.008635      0.179868
O	      6.27350      8.41148      8.41944        -0.043824      0.042894      0.062769
O	      6.30936      6.36460     10.36179        -0.123194      0.021306      0.058397
O	      8.33610      8.40922     10.37440         0.006852      0.068174      0.016595
