# total energy = -229.93165523 eV
 
CRYSTAL
PRIMVEC
0.032914 6.299767 6.278871 
6.285285 0.026415 6.285159 
4.211378 4.225126 -0.003467 
PRIMCOORD
36 1
Li	      6.28457      0.06532      6.25588        -0.017649     -0.028950      0.045186
Li	      8.33319      2.11424      6.27661        -0.023339     -0.021733      0.031277
Li	      2.26318      6.32684      8.34652         0.013911      0.008157      0.016049
Li	      4.23177      8.32279      8.35357         0.031567      0.062975      0.012039
Li	      4.24988      6.23991     10.38980        -0.019635     -0.016320      0.010383
Li	      6.29273      2.12988      8.25673         0.044312     -0.017986     -0.027717
Li	      6.30024      4.12958      6.30734         0.017107      0.001268     -0.019872
Li	      8.39212      6.38179     10.41609        -0.008334     -0.022371     -0.000746
Li	      4.23667      4.30820      8.43240        -0.004034     -0.057760     -0.017074
Ti	      8.32721      4.16580      8.27078        -0.014009     -0.140001     -0.233381
Ti	      4.31188      4.29784      4.13412         0.141288     -0.019967     -0.114562
V	      6.27747      8.57688      6.39399         0.077268     -0.137980     -0.083775
Cr	     10.45637      8.47692     10.50933        -0.092268     -0.008343     -0.005835
Fe	      6.45765      8.30588     10.45477        -0.092438      0.074743     -0.136785
Fe	      2.13535      2.04755      4.13689         0.090920      0.034826      0.030803
Fe	      4.27438      2.11542      6.30861        -0.047553     -0.063476     -0.021694
Cu	      4.21082      6.35373      6.38020        -0.089278      0.013062     -0.006109
Cu	      6.27114      6.31752      8.35796         0.031748      0.053789      0.070004
O	      2.12260      2.23367      2.11676         0.006398      0.094339     -0.081359
O	      4.03201      4.30976      2.27851        -0.051788     -0.024470      0.178333
O	      4.29763      2.26911      4.22623         0.040294      0.034468     -0.030924
O	      6.20009      4.15673      4.15885        -0.230283      0.022209     -0.020338
O	      6.23248      2.10588      6.17678         0.079331     -0.005579      0.115540
O	      8.34761      4.28853      6.41144         0.019804     -0.024607      0.240584
O	      2.08307      4.25538      4.23081        -0.028157      0.053731     -0.127745
O	      4.19297      6.30220      4.33987        -0.071054      0.028227     -0.085988
O	      4.13693      4.18980      6.19278         0.109817      0.014889     -0.099360
O	      6.47216      6.52833      6.16439         0.049300     -0.075306     -0.117988
O	      6.38502      4.14242      8.50231         0.098901     -0.072834      0.050851
O	      8.29566      6.21761      8.29756         0.084830      0.016796      0.045093
O	      2.05937      6.11911      6.33392        -0.047332      0.289287     -0.017144
O	      4.32902      8.42345      6.22993        -0.102586     -0.060405     -0.036515
O	      4.34362      6.32315      8.28728        -0.114080      0.028430      0.057539
O	      6.34653      8.47474      8.32624         0.011213      0.105981      0.333376
O	      6.28878      6.30259     10.48691        -0.040815     -0.145264      0.050073
O	      8.42055      8.42121     10.49101         0.146625      0.006177     -0.002219
