# total energy = -229.40851917 eV
 
CRYSTAL
PRIMVEC
0.005770 6.225269 6.271672 
6.365121 -0.005380 6.283071 
4.236328 4.150714 0.003454 
PRIMCOORD
36 1
Li	      4.35749      8.26741      8.43558         0.031714     -0.017628      0.065135
Li	      8.42104      4.13841      4.18286         0.008289     -0.001944     -0.010768
Li	      6.39350      8.36382     10.40322        -0.000354      0.037231      0.005990
Li	      4.34481      4.07352      4.17654         0.017984     -0.065651      0.033105
Li	      6.38168      4.14760      6.15004         0.015041     -0.028940     -0.022677
Li	     10.52783      8.36201     10.48956        -0.029029      0.009934     -0.015623
Li	      8.39289      6.27250     10.52495        -0.038764     -0.034714     -0.020400
Li	      6.32666      8.31760      6.30957        -0.019424      0.002663     -0.024628
Li	      8.37354      8.38039      8.52574        -0.067321      0.023073      0.109811
Ti	     10.56131      6.30273      8.44580        -0.121497      0.132168      0.044056
Ti	      2.17372      4.13466      2.17759         0.085643      0.118225      0.346943
V	      4.24902      6.13833      6.28965        -0.000818      0.034261     -0.043681
Cr	      6.39864      6.16888      4.21364         0.133419      0.088419      0.075203
Fe	      8.50541      8.29244     12.32878        -0.065241     -0.006967      0.083941
Fe	      4.26870      2.13740      6.17238         0.015979      0.162131      0.140528
Fe	      6.27186      6.38244      8.55435         0.078967     -0.199592     -0.119428
Ni	      0.04753      6.15489      6.18802         0.026809     -0.056033     -0.093030
Ni	      6.40557     10.27251      8.42876        -0.008007     -0.021233     -0.007984
O	      2.01131      2.11071      2.15859        -0.038459      0.124247     -0.060159
O	      4.15835      4.24327      2.05515        -0.115907      0.037612      0.103423
O	      4.12838      2.08922      4.22906        -0.120008     -0.275288     -0.348587
O	      6.36738      4.21571      4.14193        -0.019293      0.040283      0.118858
O	      6.44422      2.02551      6.46371         0.078037      0.143281      0.115142
O	      8.57547      4.05493      6.42872        -0.125497     -0.003375     -0.008814
O	      2.14171      4.08816      4.03138        -0.018485      0.002080     -0.388661
O	      4.30097      6.22074      4.10927         0.018717      0.016752     -0.144539
O	      4.21059      4.34438      6.23123         0.033875     -0.087968      0.083628
O	      6.24989      6.23317      6.25267        -0.070555     -0.005618      0.026690
O	      6.50711      4.07177      8.34599         0.067635     -0.111292      0.008872
O	      8.55742      6.13971      8.32902         0.122673     -0.001611      0.157322
O	      2.16749      6.26685      6.34970         0.074241     -0.036886     -0.094073
O	      4.15056      8.14520      6.24891         0.063119     -0.055419      0.031900
O	      4.30577      6.20693      8.24266        -0.019414     -0.012698     -0.024690
O	      6.36726      8.24562      8.35535         0.008660      0.074534     -0.039940
O	      6.38222      6.19757     10.41582        -0.001173     -0.021279      0.042056
O	      8.47011      8.28582     10.49642        -0.001556     -0.002757     -0.124920
