# total energy = -234.98374558 eV
 
CRYSTAL
PRIMVEC
-0.030989 6.363568 6.275684 
6.401546 -0.032382 6.276836 
4.238792 4.214157 0.007411 
PRIMCOORD
36 1
Li	      4.17267      2.10948      2.22989        -0.044394     -0.032340      0.050527
Li	      8.33714      4.38215      4.22861        -0.103164      0.072722     -0.012669
Li	      6.26481      2.18838      4.23582        -0.058061      0.061398      0.013841
Li	      0.04808      2.08309      2.03365         0.068557     -0.062224     -0.013423
Li	      2.16292      4.13338      2.05694         0.003737     -0.043215      0.015108
Li	      2.30245      1.97651      4.16743         0.000470     -0.063319     -0.016547
Li	      4.21024      2.07038      6.18168        -0.048894     -0.034735      0.041914
Li	      6.40807      4.22994      6.18215         0.021114      0.048486      0.029457
Li	      6.44119      8.36487      6.33255         0.050819     -0.052068      0.016555
Ti	      4.30195      8.36211      4.18066         0.094459     -0.104973     -0.036783
Ti	      8.46865      6.30320     10.39812        -0.004912     -0.022541     -0.108037
V	      6.34178      6.41059      8.32740        -0.074979      0.100584     -0.199915
Cr	      4.24437      4.24672      8.31250        -0.158747      0.153493     -0.111419
Fe	     10.54167      4.26313      6.44145         0.091088     -0.049786     -0.093740
Fe	      8.43132      2.17213      6.40242        -0.004986     -0.054584     -0.008517
Fe	      4.38655      4.01928      4.25145         0.004219      0.063658     -0.105025
Fe	      4.30357      6.33659      6.26324        -0.077286      0.013459      0.107443
Co	      6.35916      4.22663      2.14746         0.093786     -0.091392     -0.011319
O	      2.13325      2.07306      2.02195        -0.073884     -0.306389      0.054507
O	      4.26129      4.19626      2.11485         0.347982      0.074479      0.063018
O	      4.24215      2.15854      4.19475         0.003160     -0.000551      0.038761
O	      6.28803      4.22111      4.20594         0.045997     -0.004314     -0.027016
O	      6.48049      1.98049      6.26067        -0.001989      0.028815      0.001155
O	      8.59652      4.13257      6.27328        -0.038614      0.008831      0.037748
O	      2.01403      4.34692      4.16806        -0.173712      0.162955     -0.036377
O	      4.09694      6.40854      4.13522        -0.112138      0.193726     -0.103350
O	      4.22558      4.21628      6.26184        -0.035279     -0.014144      0.112868
O	      6.30035      6.33600      6.39615         0.122097      0.043414      0.051899
O	      6.29663      4.32722      8.50581        -0.001436     -0.055293      0.197066
O	      8.46193      6.40936      8.46911         0.004770      0.002960      0.221836
O	      2.07743      6.44073      6.13908        -0.030775     -0.040976     -0.191070
O	      4.12349      8.55988      6.11614         0.040801      0.024337     -0.223066
O	      4.24597      6.24594      8.38805        -0.298532     -0.014787      0.141278
O	      6.48761      8.38570      8.39201         0.049265      0.239971     -0.000515
O	      6.49990      6.20835     10.43665         0.181104     -0.101696      0.083176
O	      8.62247      8.30701     10.40240         0.118355     -0.143959      0.020631
