# total energy = -135.88593134 eV
 
CRYSTAL
PRIMVEC
-0.000013 0.000015 3.941989 
4.193415 -0.000561 -0.000014 
-0.001669 12.521628 0.000067 
PRIMCOORD
24 1
Li	      1.04650      0.98717      0.98387         0.000861      0.053321     -0.000160
Li	      1.04750      5.24058      0.98348        -0.000491      0.009751      0.001286
Li	      1.04785      9.41101      0.98384        -0.000974     -0.050573     -0.001521
Li	      3.14319      3.06024      0.98362         0.000323      0.054156      0.000667
Li	      3.14457      7.31811      0.98332        -0.000101     -0.040583      0.001489
Li	      3.14376     11.52628      0.98392         0.000299     -0.034118      0.000336
Mn	      1.04705      3.08417      2.95473        -0.001376      0.144285     -0.000661
Mn	      3.14418      9.40852      2.95460         0.000719     -0.046517      0.000802
Mn	      3.14408      5.25663      2.95451         0.000081     -0.050446     -0.000273
Ni	      1.04766      7.32552      2.95443        -0.000699     -0.057974      0.001462
Ni	      1.04703     11.49703      2.95482         0.000213     -0.053016      0.001562
Ni	      3.14360      0.98852      2.95491         0.000983      0.055135      0.001340
O	      1.04668      1.13631      2.95484         0.000448      0.033176     -0.001056
O	      1.04745      5.12524      2.95452        -0.001058     -0.034519     -0.001483
O	      1.04763      9.39015      2.95454         0.000149      0.027767     -0.000050
O	      3.14347      3.21239      2.95459         0.001869      0.025396      0.000067
O	      3.14436      7.30272      2.95443         0.000030     -0.028474     -0.001671
O	      3.14414     11.38315      2.95484        -0.001058     -0.020162     -0.001211
O	      1.04665      3.15017      0.98371         0.000014     -0.108819      0.000933
O	      1.04772      7.27452      0.98342        -0.000031      0.081946     -0.000199
O	      1.04765     11.49939      0.98382        -0.002634     -0.061109      0.001070
O	      3.14414      5.24837      0.98339        -0.000619     -0.033855     -0.000056
O	      3.14449      9.34937      0.98360         0.000232      0.100153     -0.001863
O	      3.14295      1.02892      0.98395         0.002821      0.035080     -0.000808
