# total energy = -231.07196579 eV
 
CRYSTAL
PRIMVEC
0.004944 6.234064 6.280413 
6.188144 0.022089 6.263300 
4.146556 4.165715 -0.006345 
PRIMCOORD
36 1
Li	      0.05695      6.26383      6.28338        -0.019301     -0.011099      0.019568
Li	      8.16774      2.07629      6.23667         0.007575      0.006461      0.039323
Li	      6.18184      2.10201      4.38902        -0.010210     -0.025392      0.005270
Li	      4.16261      2.20645      6.19082        -0.044752     -0.035094     -0.028334
Li	      6.05860      4.06010      6.19990         0.026939      0.031790     -0.007971
Li	      4.17167      8.28547      4.38620        -0.027778      0.014074      0.000773
Li	      4.19640      6.24949      6.23032         0.035561     -0.003079     -0.020176
Li	      4.17589      4.15520      8.21391         0.037737     -0.008261     -0.000608
Li	      6.14868      6.31976      8.24018         0.010500     -0.002505     -0.053312
Ti	      6.27246     10.20972      8.38047         0.095085     -0.416124      0.028918
Ti	      8.43583     10.31942     10.55741         0.181298     -0.013406      0.133352
Ti	      8.11656      4.24613      8.20141        -0.391574     -0.008467     -0.070279
Cr	      6.18252      2.11071      8.27309         0.003940      0.034133     -0.005928
Cr	      8.24384      6.31718     10.48020         0.029001      0.025088     -0.054708
Co	      6.17827      6.30298      4.22971        -0.048232     -0.121108      0.375806
Cu	      6.22692      8.29347      6.27176         0.040587      0.107138      0.088662
Ni	      4.15405      8.29080      8.34690        -0.045472      0.025650      0.028062
Ni	      4.13909      4.13756      4.23265         0.071331     -0.051477     -0.027620
O	      2.04326      2.15132      2.14939        -0.200728      0.112400     -0.654818
O	      4.19764      4.20889      2.11237         0.050786      0.068319     -0.096662
O	      4.04313      1.97726      4.13761         0.561639     -0.245570     -0.093233
O	      6.25147      4.18082      4.07932         0.104141     -0.101504     -0.089036
O	      6.18725      2.08862      6.37021        -0.026940     -0.012966     -0.069334
O	      8.28593      4.18147      6.26382         0.043810     -0.015352     -0.017731
O	      2.08664      4.27377      3.92969        -0.107832      0.177490     -0.204862
O	      4.08459      6.23282      4.07659        -0.360019      0.149996     -0.085394
O	      3.98477      4.17543      6.20774         0.050517     -0.012109      0.181106
O	      6.20572      6.42329      6.14326        -0.082673      0.041947      0.565140
O	      6.27855      4.15321      8.24554         0.372354     -0.004896      0.006070
O	      8.30096      6.19608      8.42856        -0.052707     -0.064222     -0.020671
O	      2.09930      6.14482      6.32298         0.005951      0.012630      0.036487
O	      4.34126      8.30612      6.37081        -0.078159     -0.043751     -0.116741
O	      4.04225      6.23166      8.50705        -0.174772     -0.148833      0.040266
O	      6.20720      8.41103      8.53060         0.133095      0.443670      0.082790
O	      6.15765      6.25510     10.46780        -0.216717     -0.011873      0.062052
O	      8.31247      8.39437     10.52583         0.026018      0.106301      0.023775
