# total energy = -231.29812244 eV
 
CRYSTAL
PRIMVEC
-0.045635 6.267562 6.164679 
6.411328 -0.049409 6.168804 
4.233815 4.141221 0.007223 
PRIMCOORD
36 1
Li	      4.32308     10.29050      6.21390         0.049879     -0.003933     -0.027805
Li	      2.20666      8.22908      6.17125         0.069621      0.034893      0.021053
Li	      2.11658      4.13838      2.16185        -0.023917     -0.030784     -0.080212
Li	      4.09483      4.23363      4.07175        -0.052266     -0.003494      0.000541
Li	      4.31337      8.24976      4.20668        -0.017116      0.079896      0.061735
Li	      1.98382      4.25395      6.11117        -0.095088      0.017187      0.038753
Li	      4.10777      6.34055      6.08962        -0.025586      0.020805      0.051607
Li	      8.41960      8.27396      8.21655        -0.037699      0.073812     -0.020407
Li	      6.36287      6.28092      8.23767        -0.067492      0.037722     -0.027264
Ti	      4.38650      6.08387     10.26080         0.252076     -0.262804     -0.086109
Ti	      8.44864      6.24716      6.26641        -0.055513      0.016200      0.140833
Ti	      6.32422      4.14925      6.26267        -0.037187      0.024248      0.168077
Cr	      2.09384      6.25162      8.18009         0.124929     -0.004578      0.098502
Cr	      4.23346      8.35725      8.17588         0.033027     -0.012996      0.119090
Co	      2.10298      6.17426      4.14876         0.073996      0.060893      0.282945
Cu	      4.20284      6.18956      2.08321         0.062851     -0.094599      0.090426
Cu	      2.04026      2.18656      4.08411        -0.044846      0.074042      0.001556
Ni	      6.36676      8.28252     10.27258         0.095508     -0.093311     -0.081960
O	      2.25366      2.01413      2.15748         0.200925      0.064367     -0.176229
O	      4.38220      4.10150      2.07935        -0.123994      0.102653     -0.010218
O	      4.34245      1.94177      4.14013        -0.192711      0.004968      0.080390
O	      6.52692      4.08034      4.12489         0.007139      0.180486      0.020684
O	      6.26260      2.12521      6.20207        -0.108088      0.068548     -0.009899
O	      8.38228      4.21088      6.08419        -0.057419      0.026837     -0.016694
O	      2.08501      4.21407      4.11915         0.004518     -0.120108     -0.084048
O	      4.14886      6.24348      4.00428         0.042206      0.033462     -0.027771
O	      4.39328      4.02250      6.10370         0.087403     -0.046872      0.036701
O	      6.46587      6.12792      6.06925         0.045885     -0.070529      0.160104
O	      6.37184      4.12366      8.06739        -0.018034     -0.042138     -0.122077
O	      8.38765      6.21045      8.09736        -0.146665      0.022941     -0.118777
O	      2.10648      6.27431      6.22769        -0.018153     -0.015142     -0.340019
O	      4.18547      8.31167      6.29556         0.026189     -0.000117     -0.197360
O	      4.16948      6.30362      8.32172         0.015013     -0.127341      0.161621
O	      6.24782      8.39011      8.24121         0.053296     -0.010144     -0.058868
O	      6.26766      6.23253     10.29281        -0.244748     -0.149842     -0.021920
O	      8.42952      8.34931     10.28073         0.122058      0.144773     -0.026983
