# total energy = -230.69144865 eV
 
CRYSTAL
PRIMVEC
0.021260 6.221677 6.415653 
6.224147 0.034857 6.404249 
4.173589 4.164022 -0.001281 
PRIMCOORD
36 1
Li	      8.26281      2.13759      6.39067        -0.006629      0.009733     -0.070301
Li	      4.13694      2.04110      2.24152         0.124162      0.038998      0.003868
Li	      8.21686     10.33731     10.59147         0.105967      0.018796      0.017418
Li	      6.26395      2.25444      4.20938        -0.015407     -0.036900     -0.059536
Li	      8.23756      4.13252      8.56387         0.017656      0.072426     -0.018101
Li	      4.27375      4.13840      4.24658        -0.032522     -0.062732      0.067371
Li	      6.30242      4.15265      6.38739         0.006444      0.000464      0.023105
Li	      4.25449      4.24710      8.56751        -0.077347     -0.037962     -0.051679
Li	      6.14322      6.16961      8.58356         0.068854      0.017448     -0.025928
Ti	      4.11156      4.10809      0.01216        -0.006168     -0.105637     -0.154208
Ti	      4.20244      2.16916      6.32053         0.021885      0.250937     -0.161848
Ti	      8.31941      6.36185     10.51743        -0.010806      0.173775      0.000553
Cr	      6.20929      6.18834      4.28923         0.011049      0.137751      0.080117
Cr	      4.15563      6.21398      6.47731        -0.031229     -0.097355     -0.126544
Co	      6.26604      8.32580      6.54202        -0.090800     -0.003710     -0.160123
Cu	      6.31348      4.17801      2.21625        -0.110022     -0.330571     -0.039161
Cu	      6.29102      2.17235      8.52633        -0.087173     -0.026680     -0.107082
Cu	      6.21728      4.21453     10.56732        -0.015574      0.059488      0.069901
O	      6.27238      4.10233      8.61967         0.011440      0.053289     -0.107618
O	      2.04793      2.05250      2.29076         0.062531     -0.125656      0.197212
O	      4.30690      4.22687      1.90500         0.143864     -0.027014      0.043371
O	      4.05093      2.12227      4.44544        -0.088425      0.033752      0.202573
O	      6.25640      4.24377      4.37032         0.019591      0.044125     -0.199386
O	      6.09789      2.02238      6.30149        -0.172237     -0.047922     -0.058853
O	      8.45521      4.28424      6.42663         0.249423     -0.003667      0.018375
O	      2.01120      4.14725      4.43630         0.134680     -0.018610     -0.400820
O	      4.14106      6.08072      4.47902         0.048484     -0.132165      0.206703
O	      4.14670      4.11251      6.47808         0.153112     -0.141134      0.004021
O	      6.25486      6.25685      6.39288        -0.048162     -0.333523     -0.111306
O	      8.38619      6.21395      8.59501        -0.113669     -0.002135      0.122456
O	      2.11709      6.23321      6.21072        -0.096881      0.279373     -0.093564
O	      4.16228      8.33649      6.32262        -0.143444      0.165803      0.195810
O	      4.11485      6.27311      8.42990        -0.161826      0.000472      0.129510
O	      6.21658      8.41246      8.35332         0.029406      0.304583      0.517075
O	      6.41819      6.37722     10.78159         0.135736      0.090388      0.055481
O	      8.39970      8.23741     10.62244        -0.035961     -0.218229     -0.008863
