# total energy = -234.19350159 eV
 
CRYSTAL
PRIMVEC
0.003191 6.269636 6.164721 
6.293671 0.000762 6.167126 
4.195919 4.181540 0.000527 
PRIMCOORD
36 1
Li	      6.27253      0.03777      6.12674         0.002123     -0.013679     -0.010763
Li	      8.39609      2.11359      6.15122         0.044230      0.024413      0.058489
Li	      6.23423      2.05577      4.13025        -0.079817     -0.015689     -0.005229
Li	      4.19396      6.26842      2.08481        -0.047018      0.032833      0.049244
Li	      6.33115      6.24572      4.15747         0.083262      0.015244     -0.016738
Li	      4.19451      4.15482      4.09956        -0.013871     -0.015956     -0.042625
Li	      4.19486      2.07973      6.08220         0.010296      0.001667     -0.069855
Li	     10.46730      8.37263     10.29493        -0.003380     -0.027507      0.028045
Li	      6.31839      6.24823      8.22558         0.013878      0.006300     -0.003364
Ti	      2.12180      4.13548      2.07601        -0.061862     -0.007548     -0.081074
Ti	      6.29413      4.08138      6.09318         0.059621     -0.468486     -0.291621
Ti	      8.33792      6.37161     10.26621         0.076412      0.146247      0.021573
Cr	      6.23045      4.22110      2.08539        -0.052929      0.157911      0.056059
Cr	      6.29366      8.31113      6.14747        -0.234191     -0.063717      0.014047
Co	      4.24662      6.30264      6.11014         0.083495      0.056552      0.068450
Co	      4.18347      2.09651      2.13137         0.132086     -0.073908     -0.848095
Cu	      8.43614      8.32254      8.23713         0.086156     -0.106940      0.102859
Ni	      4.31408      6.25683     10.30373         0.016693      0.313254      0.006849
O	      2.12065      2.12976      2.05353         0.642088     -0.053748      0.138221
O	      4.15207      4.16326      2.04834         0.011746     -0.660624      0.122256
O	      4.21748      2.03689      3.97801        -0.044870      0.036427     -0.099714
O	      6.31338      4.20416      4.13406        -0.141007      0.023166      0.169447
O	      6.28292      2.26426      6.14840         0.022655      0.526396      0.037801
O	      8.32400      4.18691      6.23222        -0.121744     -0.000140      0.316208
O	      2.08899      4.22963      4.07063        -0.069340      0.076988     -0.089911
O	      3.98588      6.26557      4.14150        -0.172159     -0.014925     -0.091553
O	      4.23636      4.17201      6.27052        -0.039805     -0.003256     -0.039098
O	      6.31751      6.29847      6.16563        -0.027083     -0.077924      0.030569
O	      6.47490      4.18413      8.11299         0.120953     -0.042144     -0.029246
O	      8.41127      6.14306      8.31902         0.014638     -0.257129      0.135338
O	      2.07012      6.21277      6.17966        -0.009771     -0.006730     -0.044636
O	      4.30205      8.34921      6.28917         0.001913      0.019476      0.403472
O	      4.04650      6.26228      8.25250         0.087094      0.962746     -0.069924
O	      6.24171      8.48920      8.13510        -0.735268     -0.127078      0.160493
O	      6.39698      6.27898     10.28357         0.345671     -0.075506     -0.044986
O	      8.40715      8.32223     10.20295        -0.000895     -0.286985     -0.040988
